data/pglib_opf_case2869_pegase_nk.m
%%%%%%%%%%%%%%%%%%%%%%%%%%%%%%%%%%%%%%%%%%%%%%%%%%%%%%%%%%%%%%%%%%%%%%%%%%%
%%%%                                                                  %%%%%
%%%%    IEEE PES Power Grid Library - Optimal Power Flow - v17.08     %%%%%
%%%%          (https://github.com/power-grid-lib/pglib-opf)           %%%%%
%%%%               Benchmark Group - Typical Operations               %%%%%
%%%%                        30 - August - 2017                        %%%%%
%%%%                                                                  %%%%%
%%%%%%%%%%%%%%%%%%%%%%%%%%%%%%%%%%%%%%%%%%%%%%%%%%%%%%%%%%%%%%%%%%%%%%%%%%%
%
%CASE2869PEGASE  Power flow data for large part of European system.
%   Please see CASEFORMAT for details on the case file format.
%
%   This case accurately represents the size and complexity of part of the
%   European high voltage transmission network. The network contains 2,869
%   buses, 510 generators, and 4,582 branches and it operates at 380, 220,
%   150, and 110 kV. Please note that the data are fictitious and do not
%   correspond to real world data. They can thus be used to validate
%   methods and tools but should not be used for operation and planning of
%   the European grid.
%
%   The data stems from the Pan European Grid Advanced Simulation and State
%   Estimation (PEGASE) project, part of the 7th Framework Program of the
%   European Union (http://www.fp7-pegase.com/). When publishing results
%   based on this data, please cite:
%
%     S. Fliscounakis, P. Panciatici, F. Capitanescu, and L. Wehenkel,
%     "Contingency ranking with respect to overloads in very large power
%     systems taking into account uncertainty, preventive and corrective
%     actions", Power Systems, IEEE Trans. on, (28)4:4909-4917, 2013.
%     http://dx.doi.org/10.1109/TPWRS.2013.2251015
%
%   Remarks:
%
%   1. Line flow limits are the current flow limits found in PEGASE data.
%
%   2. PEGASE data contains asymmetric shunt conductance and susceptance in
%   the PI transmission line model of branches. Thus total line charging
%   susceptance of branches is set to 0 p.u. and the nodal representation
%   of shunt condutance and susceptance is used. As a result, power flow
%   equations are left unchanged compared with original PEGASE data.
%   However, line flow constraints in the optimal flow problem are
%   modified.
%
%   3. Identical linear costs are used for all generators to form a loss
%   minimizing OPF objective function.
%
%   4. Since some parts of the network are aggregated, some generators
%   (e.g. with negative PMIN) represent aggregations of multiple loads
%   and generators.
%
%   Cédric Josz, Stéphane Fliscounakis, Jean Maeght, Patrick Panciatici
%   firstname.lastname@rte-france.com
%   Réseau de Transport d'Electricité (French Transmission System Operator)
%   Département Expertise Système, Immeuble "Le Colbert"
%   9 rue de la Porte de Buc, 78000 Versailles Cedex, France
%   March 18th, 2015
%
%   Copyright (c) 2015 by Cédric Josz, Stéphane Fliscounakis, Jean Maeght,
%   and Patrick Panciatici
%   Licensed under the Creative Commons Attribution 4.0 International license,
%   http://creativecommons.org/licenses/by/4.0/
%
function mpc = pglib_opf_case2869_pegase
mpc.version = '2';
mpc.baseMVA = 100.0;

%% bus data
%	bus_i	type	Pd	Qd	Gs	Bs	area	Vm	Va	baseKV	zone	Vmax	Vmin
mpc.bus = [
	3	 1	 151.0	 48.8	 0.0	 4.69	 0	    1.00000	    0.00000	 220.0	 5	    1.10000	    0.90000;
	4	 1	 171.41	 23.4	 0.0	 2.1	 0	    1.00000	    0.00000	 220.0	 5	    1.10000	    0.90000;
	10	 1	 134.0	 24.7	 0.0	 12.44	 0	    1.00000	    0.00000	 220.0	 5	    1.10000	    0.90000;
	15	 1	 59.67	 26.7	 0.0	 12.84	 0	    1.00000	    0.00000	 220.0	 4	    1.10000	    0.90000;
	21	 1	 161.2	 39.3	 0.0	 30.71	 0	    1.00000	    0.00000	 220.0	 5	    1.10000	    0.90000;
	22	 1	 0.0	 -0.0	 0.0	 0.85	 0	    1.00000	    0.00000	 220.0	 5	    1.10000	    0.90000;
	26	 1	 167.3	 54.8	 0.0	 110.54	 0	    1.00000	    0.00000	 380.0	 5	    1.10000	    0.90000;
	29	 1	 152.9	 49.4	 0.0	 27.65	 0	    1.00000	    0.00000	 380.0	 5	    1.10000	    0.90000;
	32	 2	 0.0	 0.0	 0.0	 0.0	 0	    1.00000	    0.00000	 220.0	 4	    1.10000	    0.90000;
	33	 2	 0.0	 0.0	 0.0	 0.0	 0	    1.00000	    0.00000	 220.0	 4	    1.10000	    0.90000;
	38	 1	 42.75	 12.8	 0.0	 13.3	 0	    1.00000	    0.00000	 220.0	 8	    1.10000	    0.90000;
	39	 2	 0.0	 0.0	 0.0	 0.0	 0	    1.00000	    0.00000	 150.0	 10	    1.10000	    0.90000;
	42	 1	 20.82	 7.9	 0.0	 26.89	 0	    1.00000	    0.00000	 380.0	 4	    1.10000	    0.90000;
	44	 1	 -0.0	 0.0	 0.0	 7.27	 0	    1.00000	    0.00000	 220.0	 5	    1.10000	    0.90000;
	51	 2	 0.0	 0.0	 0.0	 0.0	 0	    1.00000	    0.00000	 220.0	 4	    1.10000	    0.90000;
	52	 1	 127.6	 31.8	 0.0	 20.51	 0	    1.00000	    0.00000	 150.0	 8	    1.10000	    0.90000;
	53	 1	 48.65	 16.1	 0.0	 7.14	 0	    1.00000	    0.00000	 220.0	 5	    1.10000	    0.90000;
	58	 1	 0.0	 0.0	 0.0	 2.31	 0	    1.00000	    0.00000	 380.0	 5	    1.10000	    0.90000;
	59	 1	 119.2	 20.7	 0.0	 3.31	 0	    1.00000	    0.00000	 220.0	 5	    1.10000	    0.90000;
	69	 1	 62.87	 20.5	 0.0	 1.15	 0	    1.00000	    0.00000	 150.0	 8	    1.10000	    0.90000;
	71	 1	 126.3	 42.4	 0.0	 55.24	 0	    1.00000	    0.00000	 150.0	 8	    1.10000	    0.90000;
	72	 1	 6.91	 -4.6	 0.0	 5.75	 0	    1.00000	    0.00000	 220.0	 4	    1.10000	    0.90000;
	75	 1	 38.74	 6.1	 0.0	 1.17	 0	    1.00000	    0.00000	 220.0	 4	    1.10000	    0.90000;
	76	 1	 22.13	 10.7	 0.0	 14.21	 0	    1.00000	    0.00000	 220.0	 8	    1.10000	    0.90000;
	77	 1	 -0.0	 -0.0	 0.0	 0.73	 0	    1.00000	    0.00000	 220.0	 4	    1.10000	    0.90000;
	89	 1	 0.0	 0.0	 0.199111	 4.530599	 0	    1.00000	    0.00000	 380.0	 2	    1.10000	    0.90000;
	90	 1	 363.25	 115.39	 0.0	 3.95	 0	    1.00000	    0.00000	 220.0	 5	    1.10000	    0.90000;
	91	 1	 -0.0	 0.0	 0.0	 0.02	 0	    1.00000	    0.00000	 150.0	 8	    1.10000	    0.90000;
	96	 1	 -8.4	 28.66	 0.0	 3.49	 0	    1.00000	    0.00000	 220.0	 5	    1.10000	    0.90000;
	113	 1	 -0.0	 -0.0	 0.0	 6.532711	 0	    1.00000	    0.00000	 380.0	 5	    1.10000	    0.90000;
	115	 1	 0.0	 -0.0	 0.0	 4.21	 0	    1.00000	    0.00000	 220.0	 5	    1.10000	    0.90000;
	118	 1	 704.53	 -35.33	 0.0	 13.102834	 0	    1.00000	    0.00000	 380.0	 5	    1.10000	    0.90000;
	124	 2	 0.0	 0.0	 0.0	 0.0	 0	    1.00000	    0.00000	 220.0	 5	    1.10000	    0.90000;
	128	 1	 23.73	 12.7	 0.0	 0.52	 0	    1.00000	    0.00000	 220.0	 5	    1.10000	    0.90000;
	130	 1	 -0.0	 0.0	 0.135375	 47.750675	 0	    1.00000	    0.00000	 380.0	 10	    1.10000	    0.90000;
	132	 1	 0.0	 -0.0	 0.0	 21.39	 0	    1.00000	    0.00000	 380.0	 1	    1.10000	    0.90000;
	133	 1	 38.14	 12.5	 0.0	 6.28	 0	    1.00000	    0.00000	 150.0	 8	    1.10000	    0.90000;
	138	 1	 -75.38	 7.8	 0.0	 29.9	 0	    1.00000	    0.00000	 380.0	 10	    1.10000	    0.90000;
	139	 1	 -764.34	 66.91	 0.0	 33.47	 0	    1.00000	    0.00000	 380.0	 8	    1.10000	    0.90000;
	140	 1	 0.0	 0.0	 0.0	 4.14	 0	    1.00000	    0.00000	 220.0	 8	    1.10000	    0.90000;
	143	 1	 0.0	 0.0	 0.0	 0.0	 0	    1.00000	    0.00000	 150.0	 8	    1.10000	    0.90000;
	145	 1	 38.34	 5.6	 0.0	 7.64	 0	    1.00000	    0.00000	 220.0	 5	    1.10000	    0.90000;
	148	 1	 32.34	 12.0	 0.0	 6.1	 0	    1.00000	    0.00000	 220.0	 5	    1.10000	    0.90000;
	150	 2	 0.0	 0.0	 0.0	 0.0	 0	    1.00000	    0.00000	 220.0	 5	    1.10000	    0.90000;
	163	 1	 147.76	 32.73	 0.0	 8.34	 0	    1.00000	    0.00000	 220.0	 5	    1.10000	    0.90000;
	164	 1	 0.0	 -0.0	 0.0	 5.17	 0	    1.00000	    0.00000	 150.0	 8	    1.10000	    0.90000;
	171	 1	 100.8	 13.2	 0.0	 5.24	 0	    1.00000	    0.00000	 220.0	 5	    1.10000	    0.90000;
	172	 1	 111.7	 10.96	 0.0	 4.22	 0	    1.00000	    0.00000	 220.0	 4	    1.10000	    0.90000;
	174	 1	 370.5	 -17.0	 0.0	 9.91	 0	    1.00000	    0.00000	 220.0	 5	    1.10000	    0.90000;
	177	 1	 94.9	 36.2	 0.0	 16.46	 0	    1.00000	    0.00000	 220.0	 10	    1.10000	    0.90000;
	179	 2	 0.0	 0.0	 0.0	 0.0	 0	    1.00000	    0.00000	 380.0	 4	    1.10000	    0.90000;
	184	 1	 -0.0	 -0.0	 0.0	 2.42	 0	    1.00000	    0.00000	 220.0	 5	    1.10000	    0.90000;
	188	 1	 36.84	 13.9	 0.0	 3.3	 0	    1.00000	    0.00000	 220.0	 5	    1.10000	    0.90000;
	194	 2	 0.0	 0.0	 0.0	 0.0	 0	    1.00000	    0.00000	 150.0	 8	    1.10000	    0.90000;
	195	 1	 73.14	 21.55	 0.0	 8.52	 0	    1.00000	    0.00000	 220.0	 5	    1.10000	    0.90000;
	196	 1	 0.0	 -0.0	 0.0	 12.48	 0	    1.00000	    0.00000	 220.0	 5	    1.10000	    0.90000;
	198	 1	 39.74	 11.8	 0.0	 1.44	 0	    1.00000	    0.00000	 220.0	 5	    1.10000	    0.90000;
	199	 1	 86.8	 28.4	 0.0	 1.34	 0	    1.00000	    0.00000	 150.0	 8	    1.10000	    0.90000;
	201	 2	 0.0	 0.0	 0.0	 0.0	 0	    1.00000	    0.00000	 220.0	 4	    1.10000	    0.90000;
	205	 1	 46.15	 18.2	 0.0	 1.29	 0	    1.00000	    0.00000	 150.0	 8	    1.10000	    0.90000;
	207	 1	 321.98	 84.4	 0.0	 1.34	 0	    1.00000	    0.00000	 220.0	 5	    1.10000	    0.90000;
	211	 1	 75.28	 19.2	 0.0	 1.9	 0	    1.00000	    0.00000	 110.0	 8	    1.10000	    0.90000;
	216	 1	 155.6	 54.7	 0.0	 2.21	 0	    1.00000	    0.00000	 220.0	 5	    1.10000	    0.90000;
	217	 1	 105.2	 0.1	 0.0	 7.36	 0	    1.00000	    0.00000	 220.0	 5	    1.10000	    0.90000;
	218	 1	 69.83	 15.12	 0.0	 2.23	 0	    1.00000	    0.00000	 220.0	 5	    1.10000	    0.90000;
	221	 2	 0.0	 0.0	 0.0	 0.0	 0	    1.00000	    0.00000	 380.0	 5	    1.10000	    0.90000;
	225	 1	 0.0	 0.0	 0.0	 1.15	 0	    1.00000	    0.00000	 220.0	 5	    1.10000	    0.90000;
	228	 1	 -23.43	 57.4	 0.0	 0.0	 0	    1.00000	    0.00000	 150.0	 2	    1.10000	    0.90000;
	230	 1	 152.07	 22.52	 0.0	 7.87	 0	    1.00000	    0.00000	 220.0	 4	    1.10000	    0.90000;
	231	 1	 -0.13	 -1.0	 0.0	 0.0	 0	    1.00000	    0.00000	 110.0	 8	    1.10000	    0.90000;
	236	 1	 45.85	 7.0	 0.0	 1.05	 0	    1.00000	    0.00000	 220.0	 4	    1.10000	    0.90000;
	243	 1	 0.0	 -0.01	 0.0	 13.49	 0	    1.00000	    0.00000	 150.0	 8	    1.10000	    0.90000;
	244	 1	 -0.0	 -0.0	 0.0	 0.68	 0	    1.00000	    0.00000	 150.0	 8	    1.10000	    0.90000;
	249	 1	 -0.0	 -0.0	 0.0	 26.3	 0	    1.00000	    0.00000	 220.0	 4	    1.10000	    0.90000;
	257	 1	 113.9	 24.5	 0.0	 6.72	 0	    1.00000	    0.00000	 220.0	 4	    1.10000	    0.90000;
	261	 1	 -0.0	 0.0	 0.0	 1.29	 0	    1.00000	    0.00000	 380.0	 10	    1.10000	    0.90000;
	264	 1	 38.74	 9.0	 0.0	 0.57	 0	    1.00000	    0.00000	 220.0	 4	    1.10000	    0.90000;
	266	 1	 0.0	 -0.0	 0.0	 140.96	 0	    1.00000	    0.00000	 380.0	 4	    1.10000	    0.90000;
	267	 1	 103.8	 2.7	 0.0	 3.33	 0	    1.00000	    0.00000	 220.0	 4	    1.10000	    0.90000;
	268	 1	 -0.13	 -1.0	 0.0	 0.0	 0	    1.00000	    0.00000	 220.0	 8	    1.10000	    0.90000;
	271	 1	 96.7	 26.8	 0.0	 0.0	 0	    1.00000	    0.00000	 150.0	 2	    1.10000	    0.90000;
	275	 1	 102.1	 25.3	 0.0	 1.11	 0	    1.00000	    0.00000	 150.0	 8	    1.10000	    0.90000;
	280	 1	 119.6	 29.6	 0.0	 5.34	 0	    1.00000	    0.00000	 220.0	 5	    1.10000	    0.90000;
	281	 1	 -0.0	 -0.0	 0.0	 18.07	 0	    1.00000	    0.00000	 380.0	 8	    1.10000	    0.90000;
	283	 1	 27.33	 11.9	 0.0	 1.17	 0	    1.00000	    0.00000	 220.0	 5	    1.10000	    0.90000;
	284	 1	 191.2	 -3.4	 0.0	 19.21	 0	    1.00000	    0.00000	 220.0	 4	    1.10000	    0.90000;
	292	 1	 13.82	 1.4	 0.0	 0.7	 0	    1.00000	    0.00000	 220.0	 5	    1.10000	    0.90000;
	297	 1	 23.73	 9.4	 0.0	 1.45	 0	    1.00000	    0.00000	 150.0	 8	    1.10000	    0.90000;
	299	 2	 0.0	 0.0	 0.0	 0.0	 0	    1.00000	    0.00000	 380.0	 4	    1.10000	    0.90000;
	304	 1	 2.2	 0.5	 0.0	 0.21	 0	    1.00000	    0.00000	 150.0	 10	    1.10000	    0.90000;
	305	 1	 103.0	 12.0	 0.0	 0.63	 0	    1.00000	    0.00000	 220.0	 5	    1.10000	    0.90000;
	306	 1	 -0.0	 0.0	 0.0	 4.76	 0	    1.00000	    0.00000	 220.0	 5	    1.10000	    0.90000;
	311	 1	 42.05	 17.2	 0.0	 1.31	 0	    1.00000	    0.00000	 150.0	 8	    1.10000	    0.90000;
	312	 1	 -0.16	 -2.91	 0.0	 0.43	 0	    1.00000	    0.00000	 110.0	 8	    1.10000	    0.90000;
	314	 1	 163.1	 46.3	 0.0	 10.6	 0	    1.00000	    0.00000	 220.0	 5	    1.10000	    0.90000;
	315	 1	 -0.0	 -0.0	 0.0	 2.13	 0	    1.00000	    0.00000	 220.0	 10	    1.10000	    0.90000;
	317	 1	 -0.0	 -0.0	 0.045946	 -1.82203	 0	    1.00000	    0.00000	 380.0	 2	    1.10000	    0.90000;
	322	 1	 303.8	 85.4	 0.0	 3.63	 0	    1.00000	    0.00000	 220.0	 10	    1.10000	    0.90000;
	326	 1	 0.0	 0.0	 0.0	 0.0	 0	    1.00000	    0.00000	 220.0	 8	    1.10000	    0.90000;
	333	 1	 524.5	 43.0	 0.0	 6.85	 0	    1.00000	    0.00000	 220.0	 5	    1.10000	    0.90000;
	338	 2	 0.0	 0.0	 0.0	 0.0	 0	    1.00000	    0.00000	 220.0	 5	    1.10000	    0.90000;
	344	 1	 372.8	 147.5	 0.0	 27.73	 0	    1.00000	    0.00000	 150.0	 8	    1.10000	    0.90000;
	346	 1	 197.5	 48.3	 0.0	 0.71	 0	    1.00000	    0.00000	 220.0	 5	    1.10000	    0.90000;
	349	 1	 -0.0	 0.0	 0.0	 15.15	 0	    1.00000	    0.00000	 150.0	 8	    1.10000	    0.90000;
	350	 1	 110.4	 26.2	 0.0	 5.62	 0	    1.00000	    0.00000	 220.0	 5	    1.10000	    0.90000;
	351	 1	 -0.15	 -1.93	 0.0	 0.0	 0	    1.00000	    0.00000	 220.0	 8	    1.10000	    0.90000;
	352	 2	 0.0	 0.0	 0.0	 0.0	 0	    1.00000	    0.00000	 380.0	 5	    1.10000	    0.90000;
	360	 1	 35.54	 11.5	 0.0	 3.65	 0	    1.00000	    0.00000	 110.0	 8	    1.10000	    0.90000;
	367	 1	 65.17	 -51.5	 0.0	 4.85	 0	    1.00000	    0.00000	 220.0	 5	    1.10000	    0.90000;
	369	 1	 -0.0	 0.0	 0.0	 3.78	 0	    1.00000	    0.00000	 220.0	 8	    1.10000	    0.90000;
	370	 1	 56.76	 23.2	 0.0	 0.49	 0	    1.00000	    0.00000	 150.0	 8	    1.10000	    0.90000;
	377	 1	 -0.18	 -1.0	 0.0	 0.0	 0	    1.00000	    0.00000	 150.0	 8	    1.10000	    0.90000;
	380	 1	 -95.71	 -2.8	 0.0	 7.25	 0	    1.00000	    0.00000	 220.0	 10	    1.10000	    0.90000;
	385	 1	 -0.0	 -0.0	 0.0	 105.84	 0	    1.00000	    0.00000	 380.0	 4	    1.10000	    0.90000;
	387	 1	 -0.19	 -4.38	 0.0	 0.0	 0	    1.00000	    0.00000	 150.0	 8	    1.10000	    0.90000;
	389	 2	 0.0	 0.0	 0.0	 0.0	 0	    1.00000	    0.00000	 150.0	 10	    1.10000	    0.90000;
	392	 1	 134.1	 34.2	 0.0	 0.75	 0	    1.00000	    0.00000	 150.0	 8	    1.10000	    0.90000;
	395	 1	 -0.0	 -0.0	 0.0	 7.85	 0	    1.00000	    0.00000	 380.0	 8	    1.10000	    0.90000;
	401	 1	 56.5	 36.29	 0.0	 3.08	 0	    1.00000	    0.00000	 220.0	 5	    1.10000	    0.90000;
	408	 1	 129.1	 7.4	 0.0	 0.04	 0	    1.00000	    0.00000	 220.0	 5	    1.10000	    0.90000;
	410	 1	 170.89	 50.38	 0.0	 6.44	 0	    1.00000	    0.00000	 220.0	 5	    1.10000	    0.90000;
	413	 2	 0.0	 0.0	 0.0	 0.0	 0	    1.00000	    0.00000	 220.0	 5	    1.10000	    0.90000;
	415	 1	 4.71	 0.7	 0.0	 11.39	 0	    1.00000	    0.00000	 220.0	 4	    1.10000	    0.90000;
	416	 1	 70.68	 13.5	 0.0	 6.96	 0	    1.00000	    0.00000	 220.0	 5	    1.10000	    0.90000;
	420	 1	 0.0	 0.0	 0.0	 0.0	 0	    1.00000	    0.00000	 380.0	 8	    1.10000	    0.90000;
	425	 1	 -0.0	 0.0	 0.0	 2.72	 0	    1.00000	    0.00000	 380.0	 1	    1.10000	    0.90000;
	426	 1	 123.1	 6.5	 0.0	 3.25	 0	    1.00000	    0.00000	 220.0	 5	    1.10000	    0.90000;
	427	 1	 -0.0	 0.0	 0.0	 1.24	 0	    1.00000	    0.00000	 380.0	 1	    1.10000	    0.90000;
	429	 1	 26.93	 -22.4	 0.0	 4.95	 0	    1.00000	    0.00000	 220.0	 4	    1.10000	    0.90000;
	432	 1	 -0.0	 -0.0	 0.0	 68.517663	 0	    1.00000	    0.00000	 380.0	 5	    1.10000	    0.90000;
	440	 2	 0.0	 0.0	 0.0	 0.0	 0	    1.00000	    0.00000	 220.0	 4	    1.10000	    0.90000;
	441	 1	 -0.0	 0.0	 0.199768	 27.888516	 0	    1.00000	    0.00000	 380.0	 10	    1.10000	    0.90000;
	442	 2	 0.0	 0.0	 0.0	 0.0	 0	    1.00000	    0.00000	 220.0	 4	    1.10000	    0.90000;
	444	 1	 0.0	 -0.0	 0.0	 2.45	 0	    1.00000	    0.00000	 220.0	 5	    1.10000	    0.90000;
	445	 1	 36.74	 10.3	 0.0	 8.1	 0	    1.00000	    0.00000	 220.0	 4	    1.10000	    0.90000;
	449	 1	 0.0	 0.0	 0.0	 29.42	 0	    1.00000	    0.00000	 380.0	 5	    1.10000	    0.90000;
	453	 2	 0.0	 0.0	 0.0	 0.0	 0	    1.00000	    0.00000	 380.0	 5	    1.10000	    0.90000;
	455	 1	 274.32	 5.66	 0.0	 13.24	 0	    1.00000	    0.00000	 220.0	 5	    1.10000	    0.90000;
	472	 1	 336.2	 131.6	 0.0	 64.01	 0	    1.00000	    0.00000	 150.0	 8	    1.10000	    0.90000;
	473	 1	 -22.95	 -3.72	 0.0	 14.34	 0	    1.00000	    0.00000	 220.0	 4	    1.10000	    0.90000;
	477	 1	 0.0	 0.0	 0.0	 70.37	 0	    1.00000	    0.00000	 380.0	 4	    1.10000	    0.90000;
	481	 1	 -0.0	 0.0	 0.0	 17.44	 0	    1.00000	    0.00000	 220.0	 4	    1.10000	    0.90000;
	483	 1	 57.26	 15.6	 0.0	 3.43	 0	    1.00000	    0.00000	 220.0	 4	    1.10000	    0.90000;
	486	 1	 7.01	 2.0	 0.0	 0.44	 0	    1.00000	    0.00000	 150.0	 8	    1.10000	    0.90000;
	489	 2	 0.0	 0.0	 0.0	 0.0	 0	    1.00000	    0.00000	 220.0	 4	    1.10000	    0.90000;
	490	 1	 20.52	 4.0	 0.0	 2.77	 0	    1.00000	    0.00000	 220.0	 5	    1.10000	    0.90000;
	496	 1	 -0.0	 -0.0	 0.0	 10.04	 0	    1.00000	    0.00000	 150.0	 8	    1.10000	    0.90000;
	500	 1	 144.4	 35.5	 0.0	 7.66	 0	    1.00000	    0.00000	 220.0	 5	    1.10000	    0.90000;
	502	 1	 -0.0	 0.0	 0.0	 1.96	 0	    1.00000	    0.00000	 220.0	 5	    1.10000	    0.90000;
	506	 1	 -0.0	 0.0	 0.0	 0.4	 0	    1.00000	    0.00000	 380.0	 5	    1.10000	    0.90000;
	509	 1	 77.29	 7.0	 0.0	 17.6	 0	    1.00000	    0.00000	 220.0	 4	    1.10000	    0.90000;
	513	 1	 57.46	 17.1	 0.0	 1.61	 0	    1.00000	    0.00000	 220.0	 5	    1.10000	    0.90000;
	516	 2	 0.0	 0.0	 0.0	 0.0	 0	    1.00000	    0.00000	 220.0	 5	    1.10000	    0.90000;
	519	 1	 207.2	 9.4	 0.0	 8.77	 0	    1.00000	    0.00000	 220.0	 4	    1.10000	    0.90000;
	520	 1	 118.5	 20.4	 0.0	 2.57	 0	    1.00000	    0.00000	 220.0	 5	    1.10000	    0.90000;
	523	 1	 189.9	 74.7	 0.0	 26.2	 0	    1.00000	    0.00000	 150.0	 8	    1.10000	    0.90000;
	527	 1	 277.7	 45.4	 0.0	 0.7	 0	    1.00000	    0.00000	 220.0	 4	    1.10000	    0.90000;
	536	 1	 87.8	 -1.4	 0.079073	 36.047349	 0	    1.00000	    0.00000	 380.0	 10	    1.10000	    0.90000;
	539	 1	 57.96	 18.9	 0.0	 14.91	 0	    1.00000	    0.00000	 150.0	 8	    1.10000	    0.90000;
	544	 1	 79.69	 39.6	 0.0	 18.83	 0	    1.00000	    0.00000	 380.0	 10	    1.10000	    0.90000;
	548	 1	 30.93	 8.9	 0.0	 0.45	 0	    1.00000	    0.00000	 110.0	 8	    1.10000	    0.90000;
	549	 1	 0.0	 -0.0	 0.0	 5.15	 0	    1.00000	    0.00000	 220.0	 5	    1.10000	    0.90000;
	550	 1	 0.0	 -0.0	 0.0	 10.0	 0	    1.00000	    0.00000	 220.0	 4	    1.10000	    0.90000;
	552	 1	 180.8	 90.8	 0.0	 2.42	 0	    1.00000	    0.00000	 150.0	 10	    1.10000	    0.90000;
	554	 1	 0.0	 -0.0	 0.0	 1.97	 0	    1.00000	    0.00000	 220.0	 5	    1.10000	    0.90000;
	556	 1	 16.52	 9.0	 0.0	 1.17	 0	    1.00000	    0.00000	 220.0	 5	    1.10000	    0.90000;
	558	 1	 -0.18	 -3.57	 0.0	 0.0	 0	    1.00000	    0.00000	 150.0	 8	    1.10000	    0.90000;
	559	 1	 42.25	 16.6	 0.0	 0.0	 0	    1.00000	    0.00000	 150.0	 8	    1.10000	    0.90000;
	561	 1	 0.0	 -0.0	 0.0	 0.32	 0	    1.00000	    0.00000	 220.0	 5	    1.10000	    0.90000;
	564	 2	 0.0	 0.0	 0.0	 0.0	 0	    1.00000	    0.00000	 220.0	 5	    1.10000	    0.90000;
	575	 1	 0.0	 -0.0	 0.0	 0.67	 0	    1.00000	    0.00000	 220.0	 5	    1.10000	    0.90000;
	577	 1	 -0.13	 -1.0	 0.0	 0.0	 0	    1.00000	    0.00000	 220.0	 8	    1.10000	    0.90000;
	579	 1	 17.32	 6.6	 0.0	 16.52	 0	    1.00000	    0.00000	 380.0	 4	    1.10000	    0.90000;
	583	 2	 0.0	 0.0	 0.0	 0.0	 0	    1.00000	    0.00000	 220.0	 5	    1.10000	    0.90000;
	585	 1	 21.12	 8.3	 0.0	 4.26	 0	    1.00000	    0.00000	 150.0	 8	    1.10000	    0.90000;
	593	 1	 -0.0	 0.0	 0.0	 29.2	 0	    1.00000	    0.00000	 380.0	 8	    1.10000	    0.90000;
	594	 1	 67.57	 17.0	 0.0	 5.75	 0	    1.00000	    0.00000	 220.0	 5	    1.10000	    0.90000;
	595	 1	 47.55	 5.3	 0.0	 7.59	 0	    1.00000	    0.00000	 220.0	 4	    1.10000	    0.90000;
	597	 1	 33.34	 15.7	 0.0	 64.15	 0	    1.00000	    0.00000	 380.0	 4	    1.10000	    0.90000;
	601	 1	 140.6	 42.6	 0.0	 5.71	 0	    1.00000	    0.00000	 220.0	 5	    1.10000	    0.90000;
	602	 1	 110.8	 -8.8	 0.0	 3.15	 0	    1.00000	    0.00000	 220.0	 4	    1.10000	    0.90000;
	604	 1	 33.24	 4.4	 0.0	 24.54	 0	    1.00000	    0.00000	 380.0	 5	    1.10000	    0.90000;
	608	 1	 150.9	 10.4	 0.0	 4.77	 0	    1.00000	    0.00000	 220.0	 5	    1.10000	    0.90000;
	609	 1	 -0.0	 -0.0	 0.0	 5.67	 0	    1.00000	    0.00000	 220.0	 5	    1.10000	    0.90000;
	610	 1	 -0.0	 0.0	 0.0	 0.91	 0	    1.00000	    0.00000	 150.0	 10	    1.10000	    0.90000;
	615	 2	 0.0	 0.0	 0.0	 0.0	 0	    1.00000	    0.00000	 220.0	 5	    1.10000	    0.90000;
	616	 2	 0.0	 0.0	 0.0	 0.0	 0	    1.00000	    0.00000	 220.0	 5	    1.10000	    0.90000;
	618	 2	 0.0	 0.0	 0.0	 0.0	 0	    1.00000	    0.00000	 380.0	 4	    1.10000	    0.90000;
	619	 1	 72.88	 14.4	 0.0	 2.96	 0	    1.00000	    0.00000	 220.0	 5	    1.10000	    0.90000;
	621	 1	 21.42	 8.1	 0.0	 7.38	 0	    1.00000	    0.00000	 220.0	 4	    1.10000	    0.90000;
	628	 2	 0.0	 0.0	 0.0	 0.0	 0	    1.00000	    0.00000	 220.0	 10	    1.10000	    0.90000;
	639	 2	 0.0	 0.0	 0.0	 0.0	 0	    1.00000	    0.00000	 220.0	 5	    1.10000	    0.90000;
	641	 1	 45.32	 18.5	 0.0	 0.74	 0	    1.00000	    0.00000	 220.0	 5	    1.10000	    0.90000;
	642	 2	 0.0	 0.0	 0.0	 0.0	 0	    1.00000	    0.00000	 380.0	 4	    1.10000	    0.90000;
	643	 1	 15.52	 6.3	 0.0	 0.6	 0	    1.00000	    0.00000	 150.0	 8	    1.10000	    0.90000;
	649	 1	 40.94	 19.2	 0.0	 5.2	 0	    1.00000	    0.00000	 220.0	 4	    1.10000	    0.90000;
	650	 1	 17.22	 4.4	 0.0	 1.71	 0	    1.00000	    0.00000	 110.0	 8	    1.10000	    0.90000;
	656	 1	 -0.15	 -1.93	 0.0	 0.0	 0	    1.00000	    0.00000	 220.0	 8	    1.10000	    0.90000;
	658	 1	 258.4	 66.7	 0.0	 5.87	 0	    1.00000	    0.00000	 220.0	 5	    1.10000	    0.90000;
	659	 1	 -0.0	 -0.0	 0.174507	 73.977052	 0	    1.00000	    0.00000	 380.0	 2	    1.10000	    0.90000;
...
];

%% generator data
%	bus	Pg	Qg	Qmax	Qmin	Vg	mBase	status	Pmax	Pmin	Pc1	Pc2	Qc1min	Qc1max	Qc2min	Qc2max	ramp_agc	ramp_10	ramp_30	ramp_q	apf
mpc.gen = [
	32	 8.1	 0.675	 5.91	 -4.56	 1.006206	 100.0	 1	 16.2	 0.0	 0.0	 0.0	 0.0	 0.0	 0.0	 0.0	 0.0	 0.0	 0.0	 0.0	 0.0; % COW
	33	 2.69	 0.595	 2.27	 -1.08	 1.031909	 100.0	 1	 5.38	 0.0	 0.0	 0.0	 0.0	 0.0	 0.0	 0.0	 0.0	 0.0	 0.0	 0.0	 0.0; % NG
	39	 20.0	 5.31	 17.76	 -7.14	 1.005551	 100.0	 1	 40.0	 0.0	 0.0	 0.0	 0.0	 0.0	 0.0	 0.0	 0.0	 0.0	 0.0	 0.0	 0.0; % NG
	51	 -46.335	 0.645	 5.48	 -4.19	 1.01198	 100.0	 1	 100.0	 -192.67	 0.0	 0.0	 0.0	 0.0	 0.0	 0.0	 0.0	 0.0	 0.0	 0.0	 0.0; % NG
	124	 666.665	 133.865	 440.32	 -172.59	 1.079291	 100.0	 1	 1000.0	 333.33	 0.0	 0.0	 0.0	 0.0	 0.0	 0.0	 0.0	 0.0	 0.0	 0.0	 0.0; % NUC
	150	 80.0	 27.275	 77.09	 -22.54	 1.062067	 100.0	 1	 160.0	 0.0	 0.0	 0.0	 0.0	 0.0	 0.0	 0.0	 0.0	 0.0	 0.0	 0.0	 0.0; % NG
	179	 -69.465	 0.46	 52.64	 -51.72	 1.048817	 100.0	 1	 100.0	 -238.93	 0.0	 0.0	 0.0	 0.0	 0.0	 0.0	 0.0	 0.0	 0.0	 0.0	 0.0; % PEL
	194	 200.0	 38.33	 130.19	 -53.53	 1.029584	 100.0	 1	 300.0	 100.0	 0.0	 0.0	 0.0	 0.0	 0.0	 0.0	 0.0	 0.0	 0.0	 0.0	 0.0; % COW
	201	 2.685	 0.6	 2.27	 -1.07	 1.024675	 100.0	 1	 5.37	 0.0	 0.0	 0.0	 0.0	 0.0	 0.0	 0.0	 0.0	 0.0	 0.0	 0.0	 0.0; % NG
	221	 -53.59	 59.31	 183.92	 -65.3	 0.996091	 100.0	 1	 100.0	 -207.18	 0.0	 0.0	 0.0	 0.0	 0.0	 0.0	 0.0	 0.0	 0.0	 0.0	 0.0; % NG
	299	 1066.665	 231.27	 721.25	 -258.71	 1.046197	 100.0	 1	 1600.0	 533.33	 0.0	 0.0	 0.0	 0.0	 0.0	 0.0	 0.0	 0.0	 0.0	 0.0	 0.0; % COW
	338	 60.0	 18.19	 55.54	 -19.16	 1.049578	 100.0	 1	 120.0	 0.0	 0.0	 0.0	 0.0	 0.0	 0.0	 0.0	 0.0	 0.0	 0.0	 0.0	 0.0; % COW
	352	 1333.335	 314.335	 926.35	 -297.68	 1.054691	 100.0	 1	 2000.0	 666.67	 0.0	 0.0	 0.0	 0.0	 0.0	 0.0	 0.0	 0.0	 0.0	 0.0	 0.0; % COW
	389	 60.0	 19.445	 56.73	 -17.84	 1.020856	 100.0	 1	 120.0	 0.0	 0.0	 0.0	 0.0	 0.0	 0.0	 0.0	 0.0	 0.0	 0.0	 0.0	 0.0; % NG
	413	 140.0	 37.14	 124.12	 -49.84	 1.052152	 100.0	 1	 280.0	 0.0	 0.0	 0.0	 0.0	 0.0	 0.0	 0.0	 0.0	 0.0	 0.0	 0.0	 0.0; % NG
	440	 60.0	 18.36	 55.73	 -19.01	 1.029422	 100.0	 1	 120.0	 0.0	 0.0	 0.0	 0.0	 0.0	 0.0	 0.0	 0.0	 0.0	 0.0	 0.0	 0.0; % NG
	442	 23.1	 0.51	 1.95	 -0.93	 1.013689	 100.0	 1	 100.0	 -53.8	 0.0	 0.0	 0.0	 0.0	 0.0	 0.0	 0.0	 0.0	 0.0	 0.0	 0.0; % NG
	453	 270.0	 91.415	 257.23	 -74.4	 1.021096	 100.0	 1	 540.0	 0.0	 0.0	 0.0	 0.0	 0.0	 0.0	 0.0	 0.0	 0.0	 0.0	 0.0	 0.0; % COW
	489	 -21.6	 0.73	 6.28	 -4.82	 1.012805	 100.0	 1	 100.0	 -143.2	 0.0	 0.0	 0.0	 0.0	 0.0	 0.0	 0.0	 0.0	 0.0	 0.0	 0.0; % NG
	516	 400.0	 77.56	 261.79	 -106.67	 1.074804	 100.0	 1	 600.0	 200.0	 0.0	 0.0	 0.0	 0.0	 0.0	 0.0	 0.0	 0.0	 0.0	 0.0	 0.0; % COW
	564	 15.555	 -0.44	 18.47	 -19.35	 1.069692	 100.0	 1	 100.0	 -68.89	 0.0	 0.0	 0.0	 0.0	 0.0	 0.0	 0.0	 0.0	 0.0	 0.0	 0.0; % NG
	583	 -130.0	 5.425	 17.88	 -7.03	 1.043394	 100.0	 1	 100.0	 -360.0	 0.0	 0.0	 0.0	 0.0	 0.0	 0.0	 0.0	 0.0	 0.0	 0.0	 0.0; % NG
	615	 20.0	 4.65	 17.09	 -7.79	 1.06611	 100.0	 1	 40.0	 0.0	 0.0	 0.0	 0.0	 0.0	 0.0	 0.0	 0.0	 0.0	 0.0	 0.0	 0.0; % NG
	616	 320.0	 68.37	 217.9	 -81.16	 1.049295	 100.0	 1	 480.0	 160.0	 0.0	 0.0	 0.0	 0.0	 0.0	 0.0	 0.0	 0.0	 0.0	 0.0	 0.0; % COW
	618	 533.335	 106.035	 351.18	 -139.11	 1.028233	 100.0	 1	 800.0	 266.67	 0.0	 0.0	 0.0	 0.0	 0.0	 0.0	 0.0	 0.0	 0.0	 0.0	 0.0; % COW
	628	 90.0	 23.55	 78.79	 -31.69	 0.98494	 100.0	 1	 180.0	 0.0	 0.0	 0.0	 0.0	 0.0	 0.0	 0.0	 0.0	 0.0	 0.0	 0.0	 0.0; % NG
	639	 19.2	 48.31	 135.52	 -38.9	 1.046182	 100.0	 1	 100.0	 -61.6	 0.0	 0.0	 0.0	 0.0	 0.0	 0.0	 0.0	 0.0	 0.0	 0.0	 0.0; % NG
	642	 138.045	 -1.45	 90.13	 -93.03	 1.036757	 100.0	 1	 276.09	 0.0	 0.0	 0.0	 0.0	 0.0	 0.0	 0.0	 0.0	 0.0	 0.0	 0.0	 0.0; % COW
	682	 40.0	 13.855	 38.77	 -11.06	 1.065269	 100.0	 1	 80.0	 0.0	 0.0	 0.0	 0.0	 0.0	 0.0	 0.0	 0.0	 0.0	 0.0	 0.0	 0.0; % NG
	686	 35.57	 0.245	 34.75	 -34.26	 1.018064	 100.0	 1	 100.0	 -28.86	 0.0	 0.0	 0.0	 0.0	 0.0	 0.0	 0.0	 0.0	 0.0	 0.0	 0.0; % NG
	698	 200.0	 38.015	 129.94	 -53.91	 1.001541	 100.0	 1	 300.0	 100.0	 0.0	 0.0	 0.0	 0.0	 0.0	 0.0	 0.0	 0.0	 0.0	 0.0	 0.0; % NG
	709	 32.65	 0.7	 22.23	 -20.83	 1.072146	 100.0	 1	 65.3	 0.0	 0.0	 0.0	 0.0	 0.0	 0.0	 0.0	 0.0	 0.0	 0.0	 0.0	 0.0; % COW
	739	 333.335	 59.76	 212.97	 -93.45	 1.040583	 100.0	 1	 500.0	 166.67	 0.0	 0.0	 0.0	 0.0	 0.0	 0.0	 0.0	 0.0	 0.0	 0.0	 0.0; % NG
	749	 120.0	 30.925	 105.69	 -43.84	 1.0548	 100.0	 1	 240.0	 0.0	 0.0	 0.0	 0.0	 0.0	 0.0	 0.0	 0.0	 0.0	 0.0	 0.0	 0.0; % NG
	751	 150.0	 44.85	 136.94	 -47.24	 1.023645	 100.0	 1	 300.0	 0.0	 0.0	 0.0	 0.0	 0.0	 0.0	 0.0	 0.0	 0.0	 0.0	 0.0	 0.0; % NG
	757	 60.0	 13.945	 51.3	 -23.41	 1.016623	 100.0	 1	 120.0	 0.0	 0.0	 0.0	 0.0	 0.0	 0.0	 0.0	 0.0	 0.0	 0.0	 0.0	 0.0; % NG
	776	 -24.265	 5.715	 18.16	 -6.73	 1.029038	 100.0	 1	 100.0	 -148.53	 0.0	 0.0	 0.0	 0.0	 0.0	 0.0	 0.0	 0.0	 0.0	 0.0	 0.0; % NG
	778	 16.79	 1.505	 12.37	 -9.36	 1.051035	 100.0	 1	 33.58	 0.0	 0.0	 0.0	 0.0	 0.0	 0.0	 0.0	 0.0	 0.0	 0.0	 0.0	 0.0; % NG
	780	 40.0	 12.555	 37.43	 -12.32	 1.006139	 100.0	 1	 80.0	 0.0	 0.0	 0.0	 0.0	 0.0	 0.0	 0.0	 0.0	 0.0	 0.0	 0.0	 0.0; % NG
	795	 40.0	 11.855	 36.75	 -13.04	 1.039638	 100.0	 1	 80.0	 0.0	 0.0	 0.0	 0.0	 0.0	 0.0	 0.0	 0.0	 0.0	 0.0	 0.0	 0.0; % NG
	803	 -9.465	 24.245	 74.03	 -25.54	 1.04396	 100.0	 1	 100.0	 -118.93	 0.0	 0.0	 0.0	 0.0	 0.0	 0.0	 0.0	 0.0	 0.0	 0.0	 0.0; % NG
	807	 1333.335	 251.75	 864.47	 -360.97	 1.057043	 100.0	 1	 2000.0	 666.67	 0.0	 0.0	 0.0	 0.0	 0.0	 0.0	 0.0	 0.0	 0.0	 0.0	 0.0; % NG
	823	 1333.335	 314.185	 926.68	 -298.31	 1.044347	 100.0	 1	 2000.0	 666.67	 0.0	 0.0	 0.0	 0.0	 0.0	 0.0	 0.0	 0.0	 0.0	 0.0	 0.0; % COW
	849	 8.785	 0.77	 6.45	 -4.91	 1.041392	 100.0	 1	 17.57	 0.0	 0.0	 0.0	 0.0	 0.0	 0.0	 0.0	 0.0	 0.0	 0.0	 0.0	 0.0; % PEL
	851	 100.0	 34.415	 96.64	 -27.81	 1.006263	 100.0	 1	 200.0	 0.0	 0.0	 0.0	 0.0	 0.0	 0.0	 0.0	 0.0	 0.0	 0.0	 0.0	 0.0; % NG
	858	 666.665	 134.26	 440.67	 -172.15	 1.035299	 100.0	 1	 1000.0	 333.33	 0.0	 0.0	 0.0	 0.0	 0.0	 0.0	 0.0	 0.0	 0.0	 0.0	 0.0; % NUC
	891	 1600.0	 361.75	 1097.41	 -373.91	 1.063198	 100.0	 1	 2400.0	 800.0	 0.0	 0.0	 0.0	 0.0	 0.0	 0.0	 0.0	 0.0	 0.0	 0.0	 0.0; % NUC
	913	 1133.335	 251.085	 772.11	 -269.94	 1.032774	 100.0	 1	 1700.0	 566.67	 0.0	 0.0	 0.0	 0.0	 0.0	 0.0	 0.0	 0.0	 0.0	 0.0	 0.0; % COW
	916	 150.0	 42.345	 134.45	 -49.76	 1.024009	 100.0	 1	 300.0	 0.0	 0.0	 0.0	 0.0	 0.0	 0.0	 0.0	 0.0	 0.0	 0.0	 0.0	 0.0; % NG
	930	 600.0	 130.955	 406.66	 -144.75	 1.063763	 100.0	 1	 900.0	 300.0	 0.0	 0.0	 0.0	 0.0	 0.0	 0.0	 0.0	 0.0	 0.0	 0.0	 0.0; % COW
	972	 1333.335	 321.605	 934.73	 -291.52	 1.068998	 100.0	 1	 2000.0	 666.67	 0.0	 0.0	 0.0	 0.0	 0.0	 0.0	 0.0	 0.0	 0.0	 0.0	 0.0; % COW
	976	 53.915	 0.335	 36.02	 -35.35	 1.029847	 100.0	 1	 107.83	 0.0	 0.0	 0.0	 0.0	 0.0	 0.0	 0.0	 0.0	 0.0	 0.0	 0.0	 0.0; % COW
	1001	 60.0	 17.605	 55.02	 -19.81	 1.073365	 100.0	 1	 120.0	 0.0	 0.0	 0.0	 0.0	 0.0	 0.0	 0.0	 0.0	 0.0	 0.0	 0.0	 0.0; % COW
	1002	 100.0	 27.2	 89.55	 -35.15	 1.040649	 100.0	 1	 200.0	 0.0	 0.0	 0.0	 0.0	 0.0	 0.0	 0.0	 0.0	 0.0	 0.0	 0.0	 0.0; % NG
	1021	 -69.535	 21.055	 58.34	 -16.23	 1.019135	 100.0	 1	 100.0	 -239.07	 0.0	 0.0	 0.0	 0.0	 0.0	 0.0	 0.0	 0.0	 0.0	 0.0	 0.0; % NG
	1030	 250.0	 21.885	 71.66	 -27.89	 1.00979	 100.0	 1	 400.0	 100.0	 0.0	 0.0	 0.0	 0.0	 0.0	 0.0	 0.0	 0.0	 0.0	 0.0	 0.0; % NG
	1036	 200.0	 45.47	 137.39	 -46.45	 1.038657	 100.0	 1	 300.0	 100.0	 0.0	 0.0	 0.0	 0.0	 0.0	 0.0	 0.0	 0.0	 0.0	 0.0	 0.0; % NG
	1043	 600.0	 112.24	 387.88	 -163.4	 1.029789	 100.0	 1	 900.0	 300.0	 0.0	 0.0	 0.0	 0.0	 0.0	 0.0	 0.0	 0.0	 0.0	 0.0	 0.0; % COW
	1083	 60.0	 17.515	 54.91	 -19.88	 1.046149	 100.0	 1	 120.0	 0.0	 0.0	 0.0	 0.0	 0.0	 0.0	 0.0	 0.0	 0.0	 0.0	 0.0	 0.0; % NG
	1093	 800.0	 182.77	 550.69	 -185.15	 1.026457	 100.0	 1	 1200.0	 400.0	 0.0	 0.0	 0.0	 0.0	 0.0	 0.0	 0.0	 0.0	 0.0	 0.0	 0.0; % COW
	1100	 40.0	 11.895	 36.8	 -13.01	 1.045212	 100.0	 1	 80.0	 0.0	 0.0	 0.0	 0.0	 0.0	 0.0	 0.0	 0.0	 0.0	 0.0	 0.0	 0.0; % NG
	1102	 -32.77	 13.23	 38.05	 -11.59	 1.051902	 100.0	 1	 100.0	 -165.54	 0.0	 0.0	 0.0	 0.0	 0.0	 0.0	 0.0	 0.0	 0.0	 0.0	 0.0; % COW
	1121	 180.0	 47.695	 158.2	 -62.81	 1.019674	 100.0	 1	 360.0	 0.0	 0.0	 0.0	 0.0	 0.0	 0.0	 0.0	 0.0	 0.0	 0.0	 0.0	 0.0; % NG
	1173	 -33.135	 0.485	 1.85	 -0.88	 1.026125	 100.0	 1	 100.0	 -166.27	 0.0	 0.0	 0.0	 0.0	 0.0	 0.0	 0.0	 0.0	 0.0	 0.0	 0.0; % NG
	1174	 20.0	 6.165	 18.61	 -6.28	 1.004865	 100.0	 1	 40.0	 0.0	 0.0	 0.0	 0.0	 0.0	 0.0	 0.0	 0.0	 0.0	 0.0	 0.0	 0.0; % COW
	1175	 450.0	 34.615	 108.35	 -39.12	 1.040018	 100.0	 1	 700.0	 200.0	 0.0	 0.0	 0.0	 0.0	 0.0	 0.0	 0.0	 0.0	 0.0	 0.0	 0.0; % COW
	1237	 1333.335	 293.585	 906.61	 -319.44	 1.105045	 100.0	 1	 2000.0	 666.67	 0.0	 0.0	 0.0	 0.0	 0.0	 0.0	 0.0	 0.0	 0.0	 0.0	 0.0; % COW
	1241	 32.815	 0.655	 22.29	 -20.98	 1.021438	 100.0	 1	 65.63	 0.0	 0.0	 0.0	 0.0	 0.0	 0.0	 0.0	 0.0	 0.0	 0.0	 0.0	 0.0; % PEL
	1251	 800.0	 182.77	 550.69	 -185.15	 1.0265	 100.0	 1	 1200.0	 400.0	 0.0	 0.0	 0.0	 0.0	 0.0	 0.0	 0.0	 0.0	 0.0	 0.0	 0.0; % NUC
	1271	 -17.0	 0.215	 32.54	 -32.11	 1.015573	 100.0	 1	 100.0	 -134.0	 0.0	 0.0	 0.0	 0.0	 0.0	 0.0	 0.0	 0.0	 0.0	 0.0	 0.0; % COW
	1295	 -32.735	 12.02	 36.92	 -12.88	 1.038943	 100.0	 1	 100.0	 -165.47	 0.0	 0.0	 0.0	 0.0	 0.0	 0.0	 0.0	 0.0	 0.0	 0.0	 0.0; % COW
	1341	 60.0	 19.705	 57.03	 -17.62	 1.030396	 100.0	 1	 120.0	 0.0	 0.0	 0.0	 0.0	 0.0	 0.0	 0.0	 0.0	 0.0	 0.0	 0.0	 0.0; % PEL
	1354	 -114.335	 13.175	 38.08	 -11.73	 1.04168	 100.0	 1	 100.0	 -328.67	 0.0	 0.0	 0.0	 0.0	 0.0	 0.0	 0.0	 0.0	 0.0	 0.0	 0.0; % COW
	1391	 20.0	 6.285	 18.74	 -6.17	 1.028915	 100.0	 1	 40.0	 0.0	 0.0	 0.0	 0.0	 0.0	 0.0	 0.0	 0.0	 0.0	 0.0	 0.0	 0.0; % NG
	1399	 -66.4	 0.72	 11.64	 -10.2	 1.052722	 100.0	 1	 100.0	 -232.8	 0.0	 0.0	 0.0	 0.0	 0.0	 0.0	 0.0	 0.0	 0.0	 0.0	 0.0; % NG
	1409	 533.335	 93.45	 338.66	 -151.76	 1.024907	 100.0	 1	 800.0	 266.67	 0.0	 0.0	 0.0	 0.0	 0.0	 0.0	 0.0	 0.0	 0.0	 0.0	 0.0; % COW
	1422	 -17.335	 5.65	 18.09	 -6.79	 1.045292	 100.0	 1	 100.0	 -134.67	 0.0	 0.0	 0.0	 0.0	 0.0	 0.0	 0.0	 0.0	 0.0	 0.0	 0.0; % COW
	1436	 40.0	 12.815	 37.72	 -12.09	 1.049261	 100.0	 1	 80.0	 0.0	 0.0	 0.0	 0.0	 0.0	 0.0	 0.0	 0.0	 0.0	 0.0	 0.0	 0.0; % NG
	1458	 1333.335	 282.225	 895.23	 -330.78	 1.05352	 100.0	 1	 2000.0	 666.67	 0.0	 0.0	 0.0	 0.0	 0.0	 0.0	 0.0	 0.0	 0.0	 0.0	 0.0; % COW
	1475	 600.0	 118.725	 394.45	 -157.0	 1.025403	 100.0	 1	 900.0	 300.0	 0.0	 0.0	 0.0	 0.0	 0.0	 0.0	 0.0	 0.0	 0.0	 0.0	 0.0; % COW
	1478	 40.0	 11.48	 36.4	 -13.44	 1.046165	 100.0	 1	 80.0	 0.0	 0.0	 0.0	 0.0	 0.0	 0.0	 0.0	 0.0	 0.0	 0.0	 0.0	 0.0; % NG
	1498	 2.655	 0.595	 2.25	 -1.06	 1.078389	 100.0	 1	 5.31	 0.0	 0.0	 0.0	 0.0	 0.0	 0.0	 0.0	 0.0	 0.0	 0.0	 0.0	 0.0; % PEL
	1570	 133.335	 31.835	 93.16	 -29.49	 1.079057	 100.0	 1	 200.0	 66.67	 0.0	 0.0	 0.0	 0.0	 0.0	 0.0	 0.0	 0.0	 0.0	 0.0	 0.0; % NG
	1604	 40.0	 12.745	 37.66	 -12.17	 1.044277	 100.0	 1	 80.0	 0.0	 0.0	 0.0	 0.0	 0.0	 0.0	 0.0	 0.0	 0.0	 0.0	 0.0	 0.0; % NG
	1618	 -41.065	 0.6	 21.27	 -20.07	 1.079319	 100.0	 1	 100.0	 -182.13	 0.0	 0.0	 0.0	 0.0	 0.0	 0.0	 0.0	 0.0	 0.0	 0.0	 0.0; % NG
	1642	 40.0	 12.815	 37.74	 -12.11	 1.031925	 100.0	 1	 80.0	 0.0	 0.0	 0.0	 0.0	 0.0	 0.0	 0.0	 0.0	 0.0	 0.0	 0.0	 0.0; % NG
	1680	 1333.335	 316.395	 928.89	 -296.1	 1.044209	 100.0	 1	 2000.0	 666.67	 0.0	 0.0	 0.0	 0.0	 0.0	 0.0	 0.0	 0.0	 0.0	 0.0	 0.0; % COW
	1685	 60.0	 20.095	 57.41	 -17.22	 1.005778	 100.0	 1	 120.0	 0.0	 0.0	 0.0	 0.0	 0.0	 0.0	 0.0	 0.0	 0.0	 0.0	 0.0	 0.0; % NG
	1697	 -76.0	 0.35	 31.94	 -31.24	 1.041486	 100.0	 1	 100.0	 -252.0	 0.0	 0.0	 0.0	 0.0	 0.0	 0.0	 0.0	 0.0	 0.0	 0.0	 0.0; % NG
	1708	 666.665	 133.035	 439.37	 -173.3	 1.037844	 100.0	 1	 1000.0	 333.33	 0.0	 0.0	 0.0	 0.0	 0.0	 0.0	 0.0	 0.0	 0.0	 0.0	 0.0; % NUC
	1721	 20.0	 6.065	 18.52	 -6.39	 1.061536	 100.0	 1	 40.0	 0.0	 0.0	 0.0	 0.0	 0.0	 0.0	 0.0	 0.0	 0.0	 0.0	 0.0	 0.0; % NG
	1747	 600.0	 111.97	 387.67	 -163.73	 1.055274	 100.0	 1	 900.0	 300.0	 0.0	 0.0	 0.0	 0.0	 0.0	 0.0	 0.0	 0.0	 0.0	 0.0	 0.0; % COW
	1754	 20.53	 4.535	 16.99	 -7.92	 1.040804	 100.0	 1	 41.06	 0.0	 0.0	 0.0	 0.0	 0.0	 0.0	 0.0	 0.0	 0.0	 0.0	 0.0	 0.0; % NG
	1788	 400.0	 88.665	 272.25	 -94.92	 1.018729	 100.0	 1	 600.0	 200.0	 0.0	 0.0	 0.0	 0.0	 0.0	 0.0	 0.0	 0.0	 0.0	 0.0	 0.0; % COW
	1793	 -10.2	 9.72	 34.64	 -15.2	 1.023406	 100.0	 1	 100.0	 -120.4	 0.0	 0.0	 0.0	 0.0	 0.0	 0.0	 0.0	 0.0	 0.0	 0.0	 0.0; % NG
	1794	 1333.335	 314.335	 926.35	 -297.68	 1.052726	 100.0	 1	 2000.0	 666.67	 0.0	 0.0	 0.0	 0.0	 0.0	 0.0	 0.0	 0.0	 0.0	 0.0	 0.0; % COW
	1808	 49.6	 36.535	 111.23	 -38.16	 1.047818	 100.0	 1	 100.0	 -0.8	 0.0	 0.0	 0.0	 0.0	 0.0	 0.0	 0.0	 0.0	 0.0	 0.0	 0.0; % NG
	1850	 16.485	 0.715	 11.52	 -10.09	 1.020156	 100.0	 1	 32.97	 0.0	 0.0	 0.0	 0.0	 0.0	 0.0	 0.0	 0.0	 0.0	 0.0	 0.0	 0.0; % NG
	1851	 15.96	 1.435	 11.76	 -8.89	 1.0492	 100.0	 1	 31.92	 0.0	 0.0	 0.0	 0.0	 0.0	 0.0	 0.0	 0.0	 0.0	 0.0	 0.0	 0.0; % PEL
	1852	 -111.2	 20.82	 58.16	 -16.52	 1.056131	 100.0	 1	 100.0	 -322.4	 0.0	 0.0	 0.0	 0.0	 0.0	 0.0	 0.0	 0.0	 0.0	 0.0	 0.0; % COW
	1888	 612.78	 120.095	 396.02	 -155.83	 1.043102	 100.0	 1	 912.78	 312.78	 0.0	 0.0	 0.0	 0.0	 0.0	 0.0	 0.0	 0.0	 0.0	 0.0	 0.0; % COW
	1890	 1066.665	 196.055	 686.73	 -294.62	 1.050852	 100.0	 1	 1600.0	 533.33	 0.0	 0.0	 0.0	 0.0	 0.0	 0.0	 0.0	 0.0	 0.0	 0.0	 0.0; % COW
	1898	 150.0	 40.93	 133.11	 -51.25	 1.077705	 100.0	 1	 300.0	 0.0	 0.0	 0.0	 0.0	 0.0	 0.0	 0.0	 0.0	 0.0	 0.0	 0.0	 0.0; % NG
	1909	 29.215	 13.785	 38.67	 -11.1	 1.021788	 100.0	 1	 100.0	 -41.57	 0.0	 0.0	 0.0	 0.0	 0.0	 0.0	 0.0	 0.0	 0.0	 0.0	 0.0; % NG
	1914	 255.755	 4.705	 160.36	 -150.95	 1.038338	 100.0	 1	 472.16	 39.35	 0.0	 0.0	 0.0	 0.0	 0.0	 0.0	 0.0	 0.0	 0.0	 0.0	 0.0; % COW
	1947	 38.65	 0.54	 2.05	 -0.97	 1.056511	 100.0	 1	 100.0	 -22.7	 0.0	 0.0	 0.0	 0.0	 0.0	 0.0	 0.0	 0.0	 0.0	 0.0	 0.0; % COW
	1959	 20.0	 5.695	 18.14	 -6.75	 1.066953	 100.0	 1	 40.0	 0.0	 0.0	 0.0	 0.0	 0.0	 0.0	 0.0	 0.0	 0.0	 0.0	 0.0	 0.0; % NG
	1999	 90.0	 25.22	 80.51	 -30.07	 1.080207	 100.0	 1	 180.0	 0.0	 0.0	 0.0	 0.0	 0.0	 0.0	 0.0	 0.0	 0.0	 0.0	 0.0	 0.0; % COW
	2030	 400.0	 73.075	 257.0	 -110.85	 1.072679	 100.0	 1	 600.0	 200.0	 0.0	 0.0	 0.0	 0.0	 0.0	 0.0	 0.0	 0.0	 0.0	 0.0	 0.0; % COW
	2035	 666.665	 135.29	 441.85	 -171.27	 1.034553	 100.0	 1	 1000.0	 333.33	 0.0	 0.0	 0.0	 0.0	 0.0	 0.0	 0.0	 0.0	 0.0	 0.0	 0.0; % COW
	2050	 1333.335	 349.275	 962.2	 -263.65	 1.008592	 100.0	 1	 2000.0	 666.67	 0.0	 0.0	 0.0	 0.0	 0.0	 0.0	 0.0	 0.0	 0.0	 0.0	 0.0; % COW
	2085	 100.0	 26.1	 88.39	 -36.19	 1.03273	 100.0	 1	 200.0	 0.0	 0.0	 0.0	 0.0	 0.0	 0.0	 0.0	 0.0	 0.0	 0.0	 0.0	 0.0; % NG
	2091	 20.0	 5.42	 17.88	 -7.04	 1.026543	 100.0	 1	 40.0	 0.0	 0.0	 0.0	 0.0	 0.0	 0.0	 0.0	 0.0	 0.0	 0.0	 0.0	 0.0; % NG
	2096	 800.0	 155.185	 522.74	 -212.37	 1.050714	 100.0	 1	 1200.0	 400.0	 0.0	 0.0	 0.0	 0.0	 0.0	 0.0	 0.0	 0.0	 0.0	 0.0	 0.0; % COW
	2107	 1000.0	 202.14	 661.9	 -257.62	 1.048234	 100.0	 1	 1500.0	 500.0	 0.0	 0.0	 0.0	 0.0	 0.0	 0.0	 0.0	 0.0	 0.0	 0.0	 0.0; % COW
	2150	 400.0	 82.335	 266.17	 -101.5	 1.064827	 100.0	 1	 600.0	 200.0	 0.0	 0.0	 0.0	 0.0	 0.0	 0.0	 0.0	 0.0	 0.0	 0.0	 0.0; % NG
	2177	 -30.865	 21.045	 58.35	 -16.26	 1.070558	 100.0	 1	 100.0	 -161.73	 0.0	 0.0	 0.0	 0.0	 0.0	 0.0	 0.0	 0.0	 0.0	 0.0	 0.0; % NG
	2193	 8.06	 2.455	 7.47	 -2.56	 1.014181	 100.0	 1	 16.12	 0.0	 0.0	 0.0	 0.0	 0.0	 0.0	 0.0	 0.0	 0.0	 0.0	 0.0	 0.0; % NG
	2197	 14.475	 2.385	 19.51	 -14.74	 1.036195	 100.0	 1	 100.0	 -71.05	 0.0	 0.0	 0.0	 0.0	 0.0	 0.0	 0.0	 0.0	 0.0	 0.0	 0.0; % NG
	2206	 200.0	 45.355	 137.29	 -46.58	 1.020141	 100.0	 1	 300.0	 100.0	 0.0	 0.0	 0.0	 0.0	 0.0	 0.0	 0.0	 0.0	 0.0	 0.0	 0.0; % COW
	2225	 -5.665	 0.615	 2.27	 -1.04	 1.02967	 100.0	 1	 100.0	 -111.33	 0.0	 0.0	 0.0	 0.0	 0.0	 0.0	 0.0	 0.0	 0.0	 0.0	 0.0; % NG
	2236	 24.37	 0.58	 2.23	 -1.07	 1.023164	 100.0	 1	 100.0	 -51.26	 0.0	 0.0	 0.0	 0.0	 0.0	 0.0	 0.0	 0.0	 0.0	 0.0	 0.0; % COW
	2267	 333.335	 74.665	 228.16	 -78.83	 1.000857	 100.0	 1	 500.0	 166.67	 0.0	 0.0	 0.0	 0.0	 0.0	 0.0	 0.0	 0.0	 0.0	 0.0	 0.0; % COW
	2276	 59.65	 2.585	 41.67	 -36.5	 1.055141	 100.0	 1	 119.3	 0.0	 0.0	 0.0	 0.0	 0.0	 0.0	 0.0	 0.0	 0.0	 0.0	 0.0	 0.0; % NG
	2291	 100.0	 33.38	 95.69	 -28.93	 1.068687	 100.0	 1	 200.0	 0.0	 0.0	 0.0	 0.0	 0.0	 0.0	 0.0	 0.0	 0.0	 0.0	 0.0	 0.0; % NG
	2335	 400.0	 89.695	 273.49	 -94.1	 1.040978	 100.0	 1	 600.0	 200.0	 0.0	 0.0	 0.0	 0.0	 0.0	 0.0	 0.0	 0.0	 0.0	 0.0	 0.0; % COW
	2359	 40.0	 9.425	 34.35	 -15.5	 1.025004	 100.0	 1	 80.0	 0.0	 0.0	 0.0	 0.0	 0.0	 0.0	 0.0	 0.0	 0.0	 0.0	 0.0	 0.0; % NG
	2412	 204.545	 -0.875	 134.54	 -136.29	 1.016849	 100.0	 1	 409.09	 0.0	 0.0	 0.0	 0.0	 0.0	 0.0	 0.0	 0.0	 0.0	 0.0	 0.0	 0.0; % NG
	2421	 -163.6	 12.47	 37.39	 -12.45	 1.047704	 100.0	 1	 100.0	 -427.2	 0.0	 0.0	 0.0	 0.0	 0.0	 0.0	 0.0	 0.0	 0.0	 0.0	 0.0; % NG
	2425	 -17.0	 16.905	 54.3	 -20.49	 1.043025	 100.0	 1	 100.0	 -134.0	 0.0	 0.0	 0.0	 0.0	 0.0	 0.0	 0.0	 0.0	 0.0	 0.0	 0.0; % NG
	2426	 21.2	 3.16	 105.34	 -99.02	 1.040828	 100.0	 1	 100.0	 -57.6	 0.0	 0.0	 0.0	 0.0	 0.0	 0.0	 0.0	 0.0	 0.0	 0.0	 0.0; % NG
	2446	 1333.335	 308.445	 921.62	 -304.73	 1.053565	 100.0	 1	 2000.0	 666.67	 0.0	 0.0	 0.0	 0.0	 0.0	 0.0	 0.0	 0.0	 0.0	 0.0	 0.0; % COW
	2460	 40.0	 13.135	 38.01	 -11.74	 0.983266	 100.0	 1	 80.0	 0.0	 0.0	 0.0	 0.0	 0.0	 0.0	 0.0	 0.0	 0.0	 0.0	 0.0	 0.0; % NG
	2468	 40.0	 13.105	 38.02	 -11.81	 1.049474	 100.0	 1	 80.0	 0.0	 0.0	 0.0	 0.0	 0.0	 0.0	 0.0	 0.0	 0.0	 0.0	 0.0	 0.0; % NG
	2481	 40.0	 14.205	 39.12	 -10.71	 1.041748	 100.0	 1	 80.0	 0.0	 0.0	 0.0	 0.0	 0.0	 0.0	 0.0	 0.0	 0.0	 0.0	 0.0	 0.0; % NG
	2489	 180.0	 50.305	 162.4	 -61.79	 1.049212	 100.0	 1	 360.0	 0.0	 0.0	 0.0	 0.0	 0.0	 0.0	 0.0	 0.0	 0.0	 0.0	 0.0	 0.0; % NG
	2517	 117.26	 0.53	 78.13	 -77.07	 1.017237	 100.0	 1	 234.52	 0.0	 0.0	 0.0	 0.0	 0.0	 0.0	 0.0	 0.0	 0.0	 0.0	 0.0	 0.0; % NG
	2550	 60.0	 20.87	 58.23	 -16.49	 1.050935	 100.0	 1	 120.0	 0.0	 0.0	 0.0	 0.0	 0.0	 0.0	 0.0	 0.0	 0.0	 0.0	 0.0	 0.0; % COW
	2572	 400.0	 92.28	 276.19	 -91.63	 1.044905	 100.0	 1	 600.0	 200.0	 0.0	 0.0	 0.0	 0.0	 0.0	 0.0	 0.0	 0.0	 0.0	 0.0	 0.0; % COW
	2600	 80.0	 26.245	 76.08	 -23.59	 1.041924	 100.0	 1	 160.0	 0.0	 0.0	 0.0	 0.0	 0.0	 0.0	 0.0	 0.0	 0.0	 0.0	 0.0	 0.0; % NG
	2627	 1333.335	 308.365	 921.52	 -304.79	 1.052984	 100.0	 1	 2000.0	 666.67	 0.0	 0.0	 0.0	 0.0	 0.0	 0.0	 0.0	 0.0	 0.0	 0.0	 0.0; % NUC
	2642	 1333.335	 235.545	 848.76	 -377.67	 1.054923	 100.0	 1	 2000.0	 666.67	 0.0	 0.0	 0.0	 0.0	 0.0	 0.0	 0.0	 0.0	 0.0	 0.0	 0.0; % COW
	2653	 60.0	 14.57	 51.94	 -22.8	 1.036409	 100.0	 1	 120.0	 0.0	 0.0	 0.0	 0.0	 0.0	 0.0	 0.0	 0.0	 0.0	 0.0	 0.0	 0.0; % NG
	2658	 450.0	 32.645	 124.68	 -59.39	 1.026597	 100.0	 1	 700.0	 200.0	 0.0	 0.0	 0.0	 0.0	 0.0	 0.0	 0.0	 0.0	 0.0	 0.0	 0.0; % COW
	2660	 90.0	 24.46	 79.69	 -30.77	 1.013897	 100.0	 1	 180.0	 0.0	 0.0	 0.0	 0.0	 0.0	 0.0	 0.0	 0.0	 0.0	 0.0	 0.0	 0.0; % NG
	2686	 1.4	 -0.445	 69.01	 -69.9	 1.020441	 100.0	 1	 100.0	 -97.2	 0.0	 0.0	 0.0	 0.0	 0.0	 0.0	 0.0	 0.0	 0.0	 0.0	 0.0; % NG
	2719	 98.36	 6.025	 70.15	 -58.1	 1.039499	 100.0	 1	 196.72	 0.0	 0.0	 0.0	 0.0	 0.0	 0.0	 0.0	 0.0	 0.0	 0.0	 0.0	 0.0; % NG
	2764	 600.0	 141.1	 416.7	 -134.5	 1.05096	 100.0	 1	 900.0	 300.0	 0.0	 0.0	 0.0	 0.0	 0.0	 0.0	 0.0	 0.0	 0.0	 0.0	 0.0; % COW
	2786	 1333.335	 321.67	 934.81	 -291.47	 1.069288	 100.0	 1	 2000.0	 666.67	 0.0	 0.0	 0.0	 0.0	 0.0	 0.0	 0.0	 0.0	 0.0	 0.0	 0.0; % COW
	2797	 -13.4	 26.0	 88.33	 -36.33	 1.044662	 100.0	 1	 100.0	 -126.8	 0.0	 0.0	 0.0	 0.0	 0.0	 0.0	 0.0	 0.0	 0.0	 0.0	 0.0; % COW
	2799	 80.0	 28.125	 77.91	 -21.66	 1.055463	 100.0	 1	 160.0	 0.0	 0.0	 0.0	 0.0	 0.0	 0.0	 0.0	 0.0	 0.0	 0.0	 0.0	 0.0; % NG
	2800	 800.0	 157.75	 525.34	 -209.84	 1.030206	 100.0	 1	 1200.0	 400.0	 0.0	 0.0	 0.0	 0.0	 0.0	 0.0	 0.0	 0.0	 0.0	 0.0	 0.0; % COW
	2816	 1333.335	 314.26	 926.26	 -297.74	 1.054536	 100.0	 1	 2000.0	 666.67	 0.0	 0.0	 0.0	 0.0	 0.0	 0.0	 0.0	 0.0	 0.0	 0.0	 0.0; % COW
	2817	 40.0	 9.93	 34.8	 -14.94	 0.991705	 100.0	 1	 80.0	 0.0	 0.0	 0.0	 0.0	 0.0	 0.0	 0.0	 0.0	 0.0	 0.0	 0.0	 0.0; % NG
	2841	 60.0	 18.61	 55.98	 -18.76	 1.079986	 100.0	 1	 120.0	 0.0	 0.0	 0.0	 0.0	 0.0	 0.0	 0.0	 0.0	 0.0	 0.0	 0.0	 0.0; % NG
	2842	 20.0	 5.725	 18.19	 -6.74	 1.044122	 100.0	 1	 40.0	 0.0	 0.0	 0.0	 0.0	 0.0	 0.0	 0.0	 0.0	 0.0	 0.0	 0.0	 0.0; % NG
	2853	 80.0	 22.275	 72.02	 -27.47	 1.000604	 100.0	 1	 160.0	 0.0	 0.0	 0.0	 0.0	 0.0	 0.0	 0.0	 0.0	 0.0	 0.0	 0.0	 0.0; % COW
	2872	 4.525	 0.385	 3.31	 -2.54	 1.060615	 100.0	 1	 9.05	 0.0	 0.0	 0.0	 0.0	 0.0	 0.0	 0.0	 0.0	 0.0	 0.0	 0.0	 0.0; % PEL
	2878	 107.43	 2.12	 72.95	 -68.71	 1.05418	 100.0	 1	 214.86	 0.0	 0.0	 0.0	 0.0	 0.0	 0.0	 0.0	 0.0	 0.0	 0.0	 0.0	 0.0; % NG
	2886	 60.0	 20.335	 57.69	 -17.02	 1.052878	 100.0	 1	 120.0	 0.0	 0.0	 0.0	 0.0	 0.0	 0.0	 0.0	 0.0	 0.0	 0.0	 0.0	 0.0; % PEL
	2896	 -98.935	 0.395	 1.52	 -0.73	 1.011629	 100.0	 1	 100.0	 -297.87	 0.0	 0.0	 0.0	 0.0	 0.0	 0.0	 0.0	 0.0	 0.0	 0.0	 0.0; % COW
	2902	 20.0	 6.735	 19.19	 -5.72	 1.061022	 100.0	 1	 40.0	 0.0	 0.0	 0.0	 0.0	 0.0	 0.0	 0.0	 0.0	 0.0	 0.0	 0.0	 0.0; % NG
	2930	 40.0	 12.35	 37.24	 -12.54	 1.049271	 100.0	 1	 80.0	 0.0	 0.0	 0.0	 0.0	 0.0	 0.0	 0.0	 0.0	 0.0	 0.0	 0.0	 0.0; % NG
	2934	 3.415	 0.3	 2.51	 -1.91	 1.052968	 100.0	 1	 6.83	 0.0	 0.0	 0.0	 0.0	 0.0	 0.0	 0.0	 0.0	 0.0	 0.0	 0.0	 0.0; % NG
	2946	 -98.065	 0.48	 1.83	 -0.87	 1.020023	 100.0	 1	 100.0	 -296.13	 0.0	 0.0	 0.0	 0.0	 0.0	 0.0	 0.0	 0.0	 0.0	 0.0	 0.0; % NG
	2985	 246.675	 25.895	 184.46	 -132.67	 1.05077	 100.0	 1	 493.35	 0.0	 0.0	 0.0	 0.0	 0.0	 0.0	 0.0	 0.0	 0.0	 0.0	 0.0	 0.0; % COW
	3018	 100.0	 27.395	 89.61	 -34.82	 1.043371	 100.0	 1	 200.0	 0.0	 0.0	 0.0	 0.0	 0.0	 0.0	 0.0	 0.0	 0.0	 0.0	 0.0	 0.0; % NG
	3028	 666.665	 135.29	 441.85	 -171.27	 1.034318	 100.0	 1	 1000.0	 333.33	 0.0	 0.0	 0.0	 0.0	 0.0	 0.0	 0.0	 0.0	 0.0	 0.0	 0.0; % COW
	3054	 266.665	 45.305	 167.72	 -77.11	 0.999852	 100.0	 1	 400.0	 133.33	 0.0	 0.0	 0.0	 0.0	 0.0	 0.0	 0.0	 0.0	 0.0	 0.0	 0.0; % NG
	3113	 36.465	 0.7	 22.39	 -20.99	 1.072644	 100.0	 1	 100.0	 -27.07	 0.0	 0.0	 0.0	 0.0	 0.0	 0.0	 0.0	 0.0	 0.0	 0.0	 0.0; % NG
	3114	 20.0	 4.86	 17.33	 -7.61	 1.0681	 100.0	 1	 40.0	 0.0	 0.0	 0.0	 0.0	 0.0	 0.0	 0.0	 0.0	 0.0	 0.0	 0.0	 0.0; % PEL
	3133	 120.0	 39.205	 113.97	 -35.56	 1.061763	 100.0	 1	 240.0	 0.0	 0.0	 0.0	 0.0	 0.0	 0.0	 0.0	 0.0	 0.0	 0.0	 0.0	 0.0; % NG
	3134	 -40.865	 20.46	 70.25	 -29.33	 1.02503	 100.0	 1	 100.0	 -181.73	 0.0	 0.0	 0.0	 0.0	 0.0	 0.0	 0.0	 0.0	 0.0	 0.0	 0.0; % NG
	3150	 29.105	 0.78	 6.66	 -5.1	 1.017094	 100.0	 1	 100.0	 -41.79	 0.0	 0.0	 0.0	 0.0	 0.0	 0.0	 0.0	 0.0	 0.0	 0.0	 0.0; % COW
	3157	 9.205	 0.825	 6.78	 -5.13	 1.023658	 100.0	 1	 18.41	 0.0	 0.0	 0.0	 0.0	 0.0	 0.0	 0.0	 0.0	 0.0	 0.0	 0.0	 0.0; % NG
	3163	 103.43	 -0.55	 67.92	 -69.02	 1.006379	 100.0	 1	 206.86	 0.0	 0.0	 0.0	 0.0	 0.0	 0.0	 0.0	 0.0	 0.0	 0.0	 0.0	 0.0; % NG
	3183	 60.0	 16.36	 53.7	 -20.98	 1.056991	 100.0	 1	 120.0	 0.0	 0.0	 0.0	 0.0	 0.0	 0.0	 0.0	 0.0	 0.0	 0.0	 0.0	 0.0; % NG
	3205	 270.0	 77.575	 243.61	 -88.46	 1.03763	 100.0	 1	 540.0	 0.0	 0.0	 0.0	 0.0	 0.0	 0.0	 0.0	 0.0	 0.0	 0.0	 0.0	 0.0; % NG
	3218	 -21.6	 11.895	 36.79	 -13.0	 1.032146	 100.0	 1	 100.0	 -143.2	 0.0	 0.0	 0.0	 0.0	 0.0	 0.0	 0.0	 0.0	 0.0	 0.0	 0.0; % COW
	3233	 210.0	 49.68	 178.47	 -79.11	 1.012423	 100.0	 1	 420.0	 0.0	 0.0	 0.0	 0.0	 0.0	 0.0	 0.0	 0.0	 0.0	 0.0	 0.0	 0.0; % NG
	3240	 21.8	 5.43	 62.23	 -51.37	 1.051571	 100.0	 1	 100.0	 -56.4	 0.0	 0.0	 0.0	 0.0	 0.0	 0.0	 0.0	 0.0	 0.0	 0.0	 0.0; % NG
	3291	 333.335	 75.99	 229.0	 -77.02	 1.027251	 100.0	 1	 500.0	 166.67	 0.0	 0.0	 0.0	 0.0	 0.0	 0.0	 0.0	 0.0	 0.0	 0.0	 0.0; % NG
	3306	 666.665	 132.885	 439.2	 -173.43	 1.069265	 100.0	 1	 1000.0	 333.33	 0.0	 0.0	 0.0	 0.0	 0.0	 0.0	 0.0	 0.0	 0.0	 0.0	 0.0; % COW
	3324	 32.35	 13.245	 38.13	 -11.64	 1.016523	 100.0	 1	 100.0	 -35.3	 0.0	 0.0	 0.0	 0.0	 0.0	 0.0	 0.0	 0.0	 0.0	 0.0	 0.0; % NG
	3334	 19.665	 9.535	 34.41	 -15.34	 1.03247	 100.0	 1	 100.0	 -60.67	 0.0	 0.0	 0.0	 0.0	 0.0	 0.0	 0.0	 0.0	 0.0	 0.0	 0.0; % NG
	3335	 0.0	 0.0	 99999.0	 -99999.0	 1.08873	 100.0	 1	 630.0	 -630.0	 0.0	 0.0	 0.0	 0.0	 0.0	 0.0	 0.0	 0.0	 0.0	 0.0	 0.0; % COW
	3346	 40.0	 12.17	 37.1	 -12.76	 1.014746	 100.0	 1	 80.0	 0.0	 0.0	 0.0	 0.0	 0.0	 0.0	 0.0	 0.0	 0.0	 0.0	 0.0	 0.0; % COW
	3353	 40.0	 13.295	 38.2	 -11.61	 1.047796	 100.0	 1	 80.0	 0.0	 0.0	 0.0	 0.0	 0.0	 0.0	 0.0	 0.0	 0.0	 0.0	 0.0	 0.0; % NG
	3364	 67.635	 2.875	 47.19	 -41.44	 1.055303	 100.0	 1	 135.27	 0.0	 0.0	 0.0	 0.0	 0.0	 0.0	 0.0	 0.0	 0.0	 0.0	 0.0	 0.0; % NG
	3390	 60.0	 17.2	 54.59	 -20.19	 1.041678	 100.0	 1	 120.0	 0.0	 0.0	 0.0	 0.0	 0.0	 0.0	 0.0	 0.0	 0.0	 0.0	 0.0	 0.0; % COW
	3416	 90.0	 21.155	 76.43	 -34.12	 0.997085	 100.0	 1	 180.0	 0.0	 0.0	 0.0	 0.0	 0.0	 0.0	 0.0	 0.0	 0.0	 0.0	 0.0	 0.0; % NG
	3422	 60.0	 20.845	 58.19	 -16.5	 1.065868	 100.0	 1	 120.0	 0.0	 0.0	 0.0	 0.0	 0.0	 0.0	 0.0	 0.0	 0.0	 0.0	 0.0	 0.0; % NG
	3436	 800.0	 183.04	 550.97	 -184.89	 1.056276	 100.0	 1	 1200.0	 400.0	 0.0	 0.0	 0.0	 0.0	 0.0	 0.0	 0.0	 0.0	 0.0	 0.0	 0.0; % COW
	3492	 -197.2	 16.335	 53.75	 -21.08	 1.04519	 100.0	 1	 100.0	 -494.4	 0.0	 0.0	 0.0	 0.0	 0.0	 0.0	 0.0	 0.0	 0.0	 0.0	 0.0; % NG
	3513	 600.0	 112.24	 387.88	 -163.4	 1.029628	 100.0	 1	 900.0	 300.0	 0.0	 0.0	 0.0	 0.0	 0.0	 0.0	 0.0	 0.0	 0.0	 0.0	 0.0; % COW
	3565	 40.0	 13.93	 38.83	 -10.97	 1.079121	 100.0	 1	 80.0	 0.0	 0.0	 0.0	 0.0	 0.0	 0.0	 0.0	 0.0	 0.0	 0.0	 0.0	 0.0; % COW
	3580	 300.0	 77.17	 261.7	 -107.36	 1.075232	 100.0	 1	 600.0	 0.0	 0.0	 0.0	 0.0	 0.0	 0.0	 0.0	 0.0	 0.0	 0.0	 0.0	 0.0; % COW
	3582	 -164.535	 0.395	 52.83	 -52.04	 1.045127	 100.0	 1	 100.0	 -429.07	 0.0	 0.0	 0.0	 0.0	 0.0	 0.0	 0.0	 0.0	 0.0	 0.0	 0.0; % COW
	3584	 -8.935	 2.34	 19.8	 -15.12	 1.019651	 100.0	 1	 100.0	 -117.87	 0.0	 0.0	 0.0	 0.0	 0.0	 0.0	 0.0	 0.0	 0.0	 0.0	 0.0; % NG
	3585	 40.0	 12.555	 37.43	 -12.32	 1.006097	 100.0	 1	 80.0	 0.0	 0.0	 0.0	 0.0	 0.0	 0.0	 0.0	 0.0	 0.0	 0.0	 0.0	 0.0; % NG
...
];

%% generator cost data
%	2	startup	shutdown	n	c(n-1)	...	c0
mpc.gencost = [
	2	 0.0	 0.0	 3	   0.000000	  31.805964	   0.000000; % COW
	2	 0.0	 0.0	 3	   0.000000	  46.504524	   0.000000; % NG
	2	 0.0	 0.0	 3	   0.000000	  55.711127	   0.000000; % NG
	2	 0.0	 0.0	 3	   0.000000	  41.610008	   0.000000; % NG
	2	 0.0	 0.0	 3	   0.000000	   7.255919	   0.000000; % NUC
	2	 0.0	 0.0	 3	   0.000000	  38.036778	   0.000000; % NG
	2	 0.0	 0.0	 3	   0.000000	 121.508144	   0.000000; % PEL
	2	 0.0	 0.0	 3	   0.000000	  21.776300	   0.000000; % COW
	2	 0.0	 0.0	 3	   0.000000	  35.345644	   0.000000; % NG
	2	 0.0	 0.0	 3	   0.000000	  39.966475	   0.000000; % NG
	2	 0.0	 0.0	 3	   0.000000	  14.898085	   0.000000; % COW
	2	 0.0	 0.0	 3	   0.000000	   9.888063	   0.000000; % COW
	2	 0.0	 0.0	 3	   0.000000	  37.014544	   0.000000; % COW
	2	 0.0	 0.0	 3	   0.000000	  40.662634	   0.000000; % NG
	2	 0.0	 0.0	 3	   0.000000	  48.081090	   0.000000; % NG
	2	 0.0	 0.0	 3	   0.000000	  39.724541	   0.000000; % NG
	2	 0.0	 0.0	 3	   0.000000	  29.248298	   0.000000; % NG
	2	 0.0	 0.0	 3	   0.000000	  16.828523	   0.000000; % COW
	2	 0.0	 0.0	 3	   0.000000	  30.260707	   0.000000; % NG
	2	 0.0	 0.0	 3	   0.000000	  33.339877	   0.000000; % COW
	2	 0.0	 0.0	 3	   0.000000	  49.788920	   0.000000; % NG
	2	 0.0	 0.0	 3	   0.000000	  35.192289	   0.000000; % NG
	2	 0.0	 0.0	 3	   0.000000	  40.484703	   0.000000; % NG
	2	 0.0	 0.0	 3	   0.000000	  31.744621	   0.000000; % COW
	2	 0.0	 0.0	 3	   0.000000	  18.480626	   0.000000; % COW
	2	 0.0	 0.0	 3	   0.000000	  48.370726	   0.000000; % NG
	2	 0.0	 0.0	 3	   0.000000	  53.426985	   0.000000; % NG
	2	 0.0	 0.0	 3	   0.000000	  31.935827	   0.000000; % COW
	2	 0.0	 0.0	 3	   0.000000	  65.762723	   0.000000; % NG
	2	 0.0	 0.0	 3	   0.000000	  32.237942	   0.000000; % NG
	2	 0.0	 0.0	 3	   0.000000	  65.913744	   0.000000; % NG
	2	 0.0	 0.0	 3	   0.000000	  28.116839	   0.000000; % COW
	2	 0.0	 0.0	 3	   0.000000	  54.837553	   0.000000; % NG
	2	 0.0	 0.0	 3	   0.000000	  36.425081	   0.000000; % NG
	2	 0.0	 0.0	 3	   0.000000	  28.239454	   0.000000; % NG
	2	 0.0	 0.0	 3	   0.000000	  48.094259	   0.000000; % NG
	2	 0.0	 0.0	 3	   0.000000	  42.514808	   0.000000; % NG
	2	 0.0	 0.0	 3	   0.000000	  71.081044	   0.000000; % NG
	2	 0.0	 0.0	 3	   0.000000	  50.964059	   0.000000; % NG
	2	 0.0	 0.0	 3	   0.000000	  45.068740	   0.000000; % NG
	2	 0.0	 0.0	 3	   0.000000	  47.013432	   0.000000; % NG
	2	 0.0	 0.0	 3	   0.000000	  43.423889	   0.000000; % NG
	2	 0.0	 0.0	 3	   0.000000	  23.932478	   0.000000; % COW
	2	 0.0	 0.0	 3	   0.000000	 141.344885	   0.000000; % PEL
	2	 0.0	 0.0	 3	   0.000000	  38.014081	   0.000000; % NG
	2	 0.0	 0.0	 3	   0.000000	   6.385004	   0.000000; % NUC
	2	 0.0	 0.0	 3	   0.000000	   7.859629	   0.000000; % NUC
	2	 0.0	 0.0	 3	   0.000000	  23.227039	   0.000000; % COW
	2	 0.0	 0.0	 3	   0.000000	  35.407618	   0.000000; % NG
	2	 0.0	 0.0	 3	   0.000000	  23.480538	   0.000000; % COW
	2	 0.0	 0.0	 3	   0.000000	  19.405770	   0.000000; % COW
	2	 0.0	 0.0	 3	   0.000000	  21.940957	   0.000000; % COW
	2	 0.0	 0.0	 3	   0.000000	  23.045671	   0.000000; % COW
	2	 0.0	 0.0	 3	   0.000000	  34.074292	   0.000000; % NG
	2	 0.0	 0.0	 3	   0.000000	  43.072521	   0.000000; % NG
	2	 0.0	 0.0	 3	   0.000000	  32.866328	   0.000000; % NG
	2	 0.0	 0.0	 3	   0.000000	  57.025784	   0.000000; % NG
	2	 0.0	 0.0	 3	   0.000000	  31.829426	   0.000000; % COW
	2	 0.0	 0.0	 3	   0.000000	  43.435089	   0.000000; % NG
	2	 0.0	 0.0	 3	   0.000000	  30.967111	   0.000000; % COW
	2	 0.0	 0.0	 3	   0.000000	  49.585524	   0.000000; % NG
	2	 0.0	 0.0	 3	   0.000000	  19.065485	   0.000000; % COW
	2	 0.0	 0.0	 3	   0.000000	  46.738426	   0.000000; % NG
	2	 0.0	 0.0	 3	   0.000000	  31.625383	   0.000000; % NG
	2	 0.0	 0.0	 3	   0.000000	  17.257222	   0.000000; % COW
	2	 0.0	 0.0	 3	   0.000000	  17.174142	   0.000000; % COW
	2	 0.0	 0.0	 3	   0.000000	  26.267214	   0.000000; % COW
	2	 0.0	 0.0	 3	   0.000000	 126.756009	   0.000000; % PEL
	2	 0.0	 0.0	 3	   0.000000	   7.656379	   0.000000; % NUC
	2	 0.0	 0.0	 3	   0.000000	  11.871470	   0.000000; % COW
	2	 0.0	 0.0	 3	   0.000000	  27.656127	   0.000000; % COW
	2	 0.0	 0.0	 3	   0.000000	 167.919258	   0.000000; % PEL
	2	 0.0	 0.0	 3	   0.000000	  15.434317	   0.000000; % COW
	2	 0.0	 0.0	 3	   0.000000	  56.753692	   0.000000; % NG
	2	 0.0	 0.0	 3	   0.000000	  47.013908	   0.000000; % NG
	2	 0.0	 0.0	 3	   0.000000	  10.760506	   0.000000; % COW
	2	 0.0	 0.0	 3	   0.000000	  13.037587	   0.000000; % COW
	2	 0.0	 0.0	 3	   0.000000	  41.154550	   0.000000; % NG
	2	 0.0	 0.0	 3	   0.000000	  28.463299	   0.000000; % COW
	2	 0.0	 0.0	 3	   0.000000	  32.510788	   0.000000; % COW
	2	 0.0	 0.0	 3	   0.000000	  42.054091	   0.000000; % NG
	2	 0.0	 0.0	 3	   0.000000	 106.089712	   0.000000; % PEL
	2	 0.0	 0.0	 3	   0.000000	  43.044195	   0.000000; % NG
	2	 0.0	 0.0	 3	   0.000000	  46.046092	   0.000000; % NG
	2	 0.0	 0.0	 3	   0.000000	  44.342565	   0.000000; % NG
	2	 0.0	 0.0	 3	   0.000000	  39.998500	   0.000000; % NG
	2	 0.0	 0.0	 3	   0.000000	  41.846512	   0.000000; % COW
	2	 0.0	 0.0	 3	   0.000000	  47.102992	   0.000000; % NG
	2	 0.0	 0.0	 3	   0.000000	  33.355137	   0.000000; % NG
	2	 0.0	 0.0	 3	   0.000000	   7.173919	   0.000000; % NUC
	2	 0.0	 0.0	 3	   0.000000	  49.310919	   0.000000; % NG
	2	 0.0	 0.0	 3	   0.000000	  35.062920	   0.000000; % COW
	2	 0.0	 0.0	 3	   0.000000	  39.863291	   0.000000; % NG
	2	 0.0	 0.0	 3	   0.000000	  22.704409	   0.000000; % COW
	2	 0.0	 0.0	 3	   0.000000	  48.905514	   0.000000; % NG
	2	 0.0	 0.0	 3	   0.000000	  19.028792	   0.000000; % COW
	2	 0.0	 0.0	 3	   0.000000	  33.327685	   0.000000; % NG
	2	 0.0	 0.0	 3	   0.000000	  35.014388	   0.000000; % NG
	2	 0.0	 0.0	 3	   0.000000	 144.985953	   0.000000; % PEL
	2	 0.0	 0.0	 3	   0.000000	  33.226693	   0.000000; % COW
	2	 0.0	 0.0	 3	   0.000000	  21.811242	   0.000000; % COW
	2	 0.0	 0.0	 3	   0.000000	  20.431797	   0.000000; % COW
	2	 0.0	 0.0	 3	   0.000000	  66.515565	   0.000000; % NG
	2	 0.0	 0.0	 3	   0.000000	  33.863571	   0.000000; % NG
	2	 0.0	 0.0	 3	   0.000000	  29.700679	   0.000000; % COW
	2	 0.0	 0.0	 3	   0.000000	  23.704300	   0.000000; % COW
	2	 0.0	 0.0	 3	   0.000000	  55.003552	   0.000000; % NG
	2	 0.0	 0.0	 3	   0.000000	  36.450039	   0.000000; % COW
	2	 0.0	 0.0	 3	   0.000000	  36.546987	   0.000000; % COW
	2	 0.0	 0.0	 3	   0.000000	  24.868936	   0.000000; % COW
	2	 0.0	 0.0	 3	   0.000000	  30.272678	   0.000000; % COW
	2	 0.0	 0.0	 3	   0.000000	  40.531112	   0.000000; % NG
	2	 0.0	 0.0	 3	   0.000000	  33.464007	   0.000000; % NG
	2	 0.0	 0.0	 3	   0.000000	  13.868220	   0.000000; % COW
	2	 0.0	 0.0	 3	   0.000000	  34.603767	   0.000000; % COW
	2	 0.0	 0.0	 3	   0.000000	  61.395566	   0.000000; % NG
	2	 0.0	 0.0	 3	   0.000000	  54.062866	   0.000000; % NG
	2	 0.0	 0.0	 3	   0.000000	  43.338958	   0.000000; % NG
	2	 0.0	 0.0	 3	   0.000000	  36.657489	   0.000000; % NG
	2	 0.0	 0.0	 3	   0.000000	  40.000794	   0.000000; % COW
	2	 0.0	 0.0	 3	   0.000000	  63.495808	   0.000000; % NG
	2	 0.0	 0.0	 3	   0.000000	  13.498490	   0.000000; % COW
	2	 0.0	 0.0	 3	   0.000000	  29.344767	   0.000000; % COW
	2	 0.0	 0.0	 3	   0.000000	  35.950932	   0.000000; % NG
	2	 0.0	 0.0	 3	   0.000000	  47.142796	   0.000000; % NG
	2	 0.0	 0.0	 3	   0.000000	  34.297422	   0.000000; % COW
	2	 0.0	 0.0	 3	   0.000000	  38.491836	   0.000000; % NG
	2	 0.0	 0.0	 3	   0.000000	  33.073140	   0.000000; % NG
	2	 0.0	 0.0	 3	   0.000000	  31.990171	   0.000000; % NG
	2	 0.0	 0.0	 3	   0.000000	  51.301264	   0.000000; % NG
	2	 0.0	 0.0	 3	   0.000000	  45.597907	   0.000000; % NG
	2	 0.0	 0.0	 3	   0.000000	  21.378543	   0.000000; % COW
	2	 0.0	 0.0	 3	   0.000000	  37.869941	   0.000000; % NG
	2	 0.0	 0.0	 3	   0.000000	  28.517869	   0.000000; % NG
	2	 0.0	 0.0	 3	   0.000000	  34.927034	   0.000000; % NG
	2	 0.0	 0.0	 3	   0.000000	  37.983117	   0.000000; % NG
	2	 0.0	 0.0	 3	   0.000000	  40.788011	   0.000000; % NG
	2	 0.0	 0.0	 3	   0.000000	  31.390941	   0.000000; % COW
	2	 0.0	 0.0	 3	   0.000000	  18.475993	   0.000000; % COW
	2	 0.0	 0.0	 3	   0.000000	  30.659530	   0.000000; % NG
	2	 0.0	 0.0	 3	   0.000000	   7.677703	   0.000000; % NUC
	2	 0.0	 0.0	 3	   0.000000	  28.155535	   0.000000; % COW
	2	 0.0	 0.0	 3	   0.000000	  43.807428	   0.000000; % NG
	2	 0.0	 0.0	 3	   0.000000	  30.068265	   0.000000; % COW
	2	 0.0	 0.0	 3	   0.000000	  57.029408	   0.000000; % NG
	2	 0.0	 0.0	 3	   0.000000	  52.691710	   0.000000; % NG
	2	 0.0	 0.0	 3	   0.000000	  57.810502	   0.000000; % NG
	2	 0.0	 0.0	 3	   0.000000	  32.293410	   0.000000; % COW
	2	 0.0	 0.0	 3	   0.000000	  21.070281	   0.000000; % COW
	2	 0.0	 0.0	 3	   0.000000	  18.241691	   0.000000; % COW
	2	 0.0	 0.0	 3	   0.000000	  61.287286	   0.000000; % NG
	2	 0.0	 0.0	 3	   0.000000	  36.291412	   0.000000; % COW
	2	 0.0	 0.0	 3	   0.000000	  20.197199	   0.000000; % COW
	2	 0.0	 0.0	 3	   0.000000	  46.082009	   0.000000; % NG
	2	 0.0	 0.0	 3	   0.000000	  38.417962	   0.000000; % NG
	2	 0.0	 0.0	 3	   0.000000	  52.991696	   0.000000; % NG
	2	 0.0	 0.0	 3	   0.000000	  17.044780	   0.000000; % COW
	2	 0.0	 0.0	 3	   0.000000	 144.411637	   0.000000; % PEL
	2	 0.0	 0.0	 3	   0.000000	  41.259205	   0.000000; % NG
	2	 0.0	 0.0	 3	   0.000000	 141.021209	   0.000000; % PEL
	2	 0.0	 0.0	 3	   0.000000	  37.639097	   0.000000; % COW
	2	 0.0	 0.0	 3	   0.000000	  44.902351	   0.000000; % NG
	2	 0.0	 0.0	 3	   0.000000	  45.623472	   0.000000; % NG
	2	 0.0	 0.0	 3	   0.000000	  55.393293	   0.000000; % NG
	2	 0.0	 0.0	 3	   0.000000	  41.693928	   0.000000; % NG
	2	 0.0	 0.0	 3	   0.000000	  27.024580	   0.000000; % COW
	2	 0.0	 0.0	 3	   0.000000	  62.295880	   0.000000; % NG
	2	 0.0	 0.0	 3	   0.000000	  30.292438	   0.000000; % COW
	2	 0.0	 0.0	 3	   0.000000	  39.911977	   0.000000; % NG
	2	 0.0	 0.0	 3	   0.000000	  54.310431	   0.000000; % NG
	2	 0.0	 0.0	 3	   0.000000	 129.586051	   0.000000; % PEL
	2	 0.0	 0.0	 3	   0.000000	  39.782657	   0.000000; % NG
	2	 0.0	 0.0	 3	   0.000000	  56.814461	   0.000000; % NG
	2	 0.0	 0.0	 3	   0.000000	  24.804885	   0.000000; % COW
	2	 0.0	 0.0	 3	   0.000000	  50.321935	   0.000000; % NG
	2	 0.0	 0.0	 3	   0.000000	  32.702399	   0.000000; % NG
	2	 0.0	 0.0	 3	   0.000000	  51.016575	   0.000000; % NG
	2	 0.0	 0.0	 3	   0.000000	  46.878704	   0.000000; % NG
	2	 0.0	 0.0	 3	   0.000000	  27.926188	   0.000000; % COW
	2	 0.0	 0.0	 3	   0.000000	  54.257369	   0.000000; % NG
	2	 0.0	 0.0	 3	   0.000000	  53.374084	   0.000000; % NG
	2	 0.0	 0.0	 3	   0.000000	  42.436169	   0.000000; % NG
	2	 0.0	 0.0	 3	   0.000000	  27.539863	   0.000000; % COW
	2	 0.0	 0.0	 3	   0.000000	  52.745053	   0.000000; % NG
	2	 0.0	 0.0	 3	   0.000000	  42.793538	   0.000000; % NG
	2	 0.0	 0.0	 3	   0.000000	  28.950845	   0.000000; % COW
	2	 0.0	 0.0	 3	   0.000000	  14.323791	   0.000000; % COW
	2	 0.0	 0.0	 3	   0.000000	  52.484154	   0.000000; % NG
	2	 0.0	 0.0	 3	   0.000000	  69.561300	   0.000000; % NG
	2	 0.0	 0.0	 3	   0.000000	  29.320711	   0.000000; % COW
	2	 0.0	 0.0	 3	   0.000000	  33.803800	   0.000000; % NG
	2	 0.0	 0.0	 3	   0.000000	  60.214822	   0.000000; % NG
	2	 0.0	 0.0	 3	   0.000000	  32.875383	   0.000000; % COW
	2	 0.0	 0.0	 3	   0.000000	  51.396885	   0.000000; % NG
	2	 0.0	 0.0	 3	   0.000000	  18.460207	   0.000000; % COW
	2	 0.0	 0.0	 3	   0.000000	  25.686213	   0.000000; % COW
	2	 0.0	 0.0	 3	   0.000000	  19.302732	   0.000000; % COW
	2	 0.0	 0.0	 3	   0.000000	  15.029936	   0.000000; % COW
	2	 0.0	 0.0	 3	   0.000000	  42.598762	   0.000000; % NG
...